
---------- Begin Simulation Statistics ----------
simSeconds                                   6.155856                       # Number of seconds simulated (Second)
simTicks                                 6155856003979                       # Number of ticks simulated (Tick)
finalTick                                6155856003979                       # Number of ticks from beginning of simulation (restored from checkpoints and never reset) (Tick)
simFreq                                  1000000000000                       # The number of ticks per simulated second ((Tick/Second))
hostSeconds                                  18420.02                       # Real time elapsed on the host (Second)
hostTickRate                                334193714                       # The number of ticks simulated per host second (ticks/s) ((Tick/Second))
hostMemory                                   16978836                       # Number of bytes of host memory used (Byte)
simInsts                                  15187142622                       # Number of instructions simulated (Count)
simOps                                    15213011743                       # Number of ops (including micro ops) simulated (Count)
hostInstRate                                   824491                       # Simulator instruction rate (inst/s) ((Count/Second))
hostOpRate                                     825895                       # Simulator op (including micro ops) rate (op/s) ((Count/Second))
board.bridge.power_state.pwrStateResidencyTicks::UNDEFINED 6155856003979                       # Cumulative time (in ticks) in various power states (Tick)
board.cache_hierarchy.dptw_caches.demandHits::processor.start.core.mmu.dtb.walker     43966967                       # number of demand (read+write) hits (Count)
board.cache_hierarchy.dptw_caches.demandHits::total     43966967                       # number of demand (read+write) hits (Count)
board.cache_hierarchy.dptw_caches.overallHits::processor.start.core.mmu.dtb.walker     43966967                       # number of overall hits (Count)
board.cache_hierarchy.dptw_caches.overallHits::total     43966967                       # number of overall hits (Count)
board.cache_hierarchy.dptw_caches.demandMisses::processor.start.core.mmu.dtb.walker      1320237                       # number of demand (read+write) misses (Count)
board.cache_hierarchy.dptw_caches.demandMisses::total      1320237                       # number of demand (read+write) misses (Count)
board.cache_hierarchy.dptw_caches.overallMisses::processor.start.core.mmu.dtb.walker      1320237                       # number of overall misses (Count)
board.cache_hierarchy.dptw_caches.overallMisses::total      1320237                       # number of overall misses (Count)
board.cache_hierarchy.dptw_caches.demandAccesses::processor.start.core.mmu.dtb.walker     45287204                       # number of demand (read+write) accesses (Count)
board.cache_hierarchy.dptw_caches.demandAccesses::total     45287204                       # number of demand (read+write) accesses (Count)
board.cache_hierarchy.dptw_caches.overallAccesses::processor.start.core.mmu.dtb.walker     45287204                       # number of overall (read+write) accesses (Count)
board.cache_hierarchy.dptw_caches.overallAccesses::total     45287204                       # number of overall (read+write) accesses (Count)
board.cache_hierarchy.dptw_caches.demandMissRate::processor.start.core.mmu.dtb.walker     0.029153                       # miss rate for demand accesses (Ratio)
board.cache_hierarchy.dptw_caches.demandMissRate::total     0.029153                       # miss rate for demand accesses (Ratio)
board.cache_hierarchy.dptw_caches.overallMissRate::processor.start.core.mmu.dtb.walker     0.029153                       # miss rate for overall accesses (Ratio)
board.cache_hierarchy.dptw_caches.overallMissRate::total     0.029153                       # miss rate for overall accesses (Ratio)
board.cache_hierarchy.dptw_caches.blockedCycles::no_mshrs            0                       # number of cycles access was blocked (Cycle)
board.cache_hierarchy.dptw_caches.blockedCycles::no_targets            0                       # number of cycles access was blocked (Cycle)
board.cache_hierarchy.dptw_caches.blockedCauses::no_mshrs            0                       # number of times access was blocked (Count)
board.cache_hierarchy.dptw_caches.blockedCauses::no_targets            0                       # number of times access was blocked (Count)
board.cache_hierarchy.dptw_caches.avgBlocked::no_mshrs          nan                       # average number of cycles each access was blocked ((Cycle/Count))
board.cache_hierarchy.dptw_caches.avgBlocked::no_targets          nan                       # average number of cycles each access was blocked ((Cycle/Count))
board.cache_hierarchy.dptw_caches.writebacks::writebacks      1142987                       # number of writebacks (Count)
board.cache_hierarchy.dptw_caches.writebacks::total      1142987                       # number of writebacks (Count)
board.cache_hierarchy.dptw_caches.replacements      1142987                       # number of replacements (Count)
board.cache_hierarchy.dptw_caches.ReadReq.hits::processor.start.core.mmu.dtb.walker     43956394                       # number of ReadReq hits (Count)
board.cache_hierarchy.dptw_caches.ReadReq.hits::total     43956394                       # number of ReadReq hits (Count)
board.cache_hierarchy.dptw_caches.ReadReq.misses::processor.start.core.mmu.dtb.walker      1314207                       # number of ReadReq misses (Count)
board.cache_hierarchy.dptw_caches.ReadReq.misses::total      1314207                       # number of ReadReq misses (Count)
board.cache_hierarchy.dptw_caches.ReadReq.accesses::processor.start.core.mmu.dtb.walker     45270601                       # number of ReadReq accesses(hits+misses) (Count)
board.cache_hierarchy.dptw_caches.ReadReq.accesses::total     45270601                       # number of ReadReq accesses(hits+misses) (Count)
board.cache_hierarchy.dptw_caches.ReadReq.missRate::processor.start.core.mmu.dtb.walker     0.029030                       # miss rate for ReadReq accesses (Ratio)
board.cache_hierarchy.dptw_caches.ReadReq.missRate::total     0.029030                       # miss rate for ReadReq accesses (Ratio)
board.cache_hierarchy.dptw_caches.WriteReq.hits::processor.start.core.mmu.dtb.walker        10573                       # number of WriteReq hits (Count)
board.cache_hierarchy.dptw_caches.WriteReq.hits::total        10573                       # number of WriteReq hits (Count)
board.cache_hierarchy.dptw_caches.WriteReq.misses::processor.start.core.mmu.dtb.walker         6030                       # number of WriteReq misses (Count)
board.cache_hierarchy.dptw_caches.WriteReq.misses::total         6030                       # number of WriteReq misses (Count)
board.cache_hierarchy.dptw_caches.WriteReq.accesses::processor.start.core.mmu.dtb.walker        16603                       # number of WriteReq accesses(hits+misses) (Count)
board.cache_hierarchy.dptw_caches.WriteReq.accesses::total        16603                       # number of WriteReq accesses(hits+misses) (Count)
board.cache_hierarchy.dptw_caches.WriteReq.missRate::processor.start.core.mmu.dtb.walker     0.363187                       # miss rate for WriteReq accesses (Ratio)
board.cache_hierarchy.dptw_caches.WriteReq.missRate::total     0.363187                       # miss rate for WriteReq accesses (Ratio)
board.cache_hierarchy.dptw_caches.power_state.pwrStateResidencyTicks::UNDEFINED 6155856003979                       # Cumulative time (in ticks) in various power states (Tick)
board.cache_hierarchy.dptw_caches.tags.tagsInUse   116.693973                       # Average ticks per tags in use ((Tick/Count))
board.cache_hierarchy.dptw_caches.tags.totalRefs     45265442                       # Total number of references to valid blocks. (Count)
board.cache_hierarchy.dptw_caches.tags.sampledRefs      1314118                       # Sample count of references to valid blocks. (Count)
board.cache_hierarchy.dptw_caches.tags.avgRefs    34.445493                       # Average number of references to valid blocks. ((Count/Count))
board.cache_hierarchy.dptw_caches.tags.warmupTick    135380151                       # The tick when the warmup percentage was hit. (Tick)
board.cache_hierarchy.dptw_caches.tags.occupancies::processor.start.core.mmu.dtb.walker   116.693973                       # Average occupied blocks per tick, per requestor ((Count/Tick))
board.cache_hierarchy.dptw_caches.tags.avgOccs::processor.start.core.mmu.dtb.walker     0.911672                       # Average percentage of cache occupancy ((Ratio/Tick))
board.cache_hierarchy.dptw_caches.tags.avgOccs::total     0.911672                       # Average percentage of cache occupancy ((Ratio/Tick))
board.cache_hierarchy.dptw_caches.tags.occupanciesTaskId::1024           89                       # Occupied blocks per task id (Count)
board.cache_hierarchy.dptw_caches.tags.ageTaskId_1024::0            5                       # Occupied blocks per task id, per block age (Count)
board.cache_hierarchy.dptw_caches.tags.ageTaskId_1024::1           10                       # Occupied blocks per task id, per block age (Count)
board.cache_hierarchy.dptw_caches.tags.ageTaskId_1024::2           33                       # Occupied blocks per task id, per block age (Count)
board.cache_hierarchy.dptw_caches.tags.ageTaskId_1024::3           18                       # Occupied blocks per task id, per block age (Count)
board.cache_hierarchy.dptw_caches.tags.ageTaskId_1024::4           23                       # Occupied blocks per task id, per block age (Count)
board.cache_hierarchy.dptw_caches.tags.ratioOccsTaskId::1024     0.695312                       # Ratio of occupied blocks and all blocks, per task id (Ratio)
board.cache_hierarchy.dptw_caches.tags.tagAccesses    182463023                       # Number of tag accesses (Count)
board.cache_hierarchy.dptw_caches.tags.dataAccesses    182463023                       # Number of data accesses (Count)
board.cache_hierarchy.dptw_caches.tags.power_state.pwrStateResidencyTicks::UNDEFINED 6155856003979                       # Cumulative time (in ticks) in various power states (Tick)
board.cache_hierarchy.iocache.blockedCycles::no_mshrs            0                       # number of cycles access was blocked (Cycle)
board.cache_hierarchy.iocache.blockedCycles::no_targets            0                       # number of cycles access was blocked (Cycle)
board.cache_hierarchy.iocache.blockedCauses::no_mshrs            0                       # number of times access was blocked (Count)
board.cache_hierarchy.iocache.blockedCauses::no_targets            0                       # number of times access was blocked (Count)
board.cache_hierarchy.iocache.avgBlocked::no_mshrs          nan                       # average number of cycles each access was blocked ((Cycle/Count))
board.cache_hierarchy.iocache.avgBlocked::no_targets          nan                       # average number of cycles each access was blocked ((Cycle/Count))
board.cache_hierarchy.iocache.replacements            0                       # number of replacements (Count)
board.cache_hierarchy.iocache.power_state.pwrStateResidencyTicks::UNDEFINED 6155856003979                       # Cumulative time (in ticks) in various power states (Tick)
board.cache_hierarchy.iocache.tags.tagsInUse            0                       # Average ticks per tags in use ((Tick/Count))
board.cache_hierarchy.iocache.tags.totalRefs            0                       # Total number of references to valid blocks. (Count)
board.cache_hierarchy.iocache.tags.sampledRefs            0                       # Sample count of references to valid blocks. (Count)
board.cache_hierarchy.iocache.tags.avgRefs          nan                       # Average number of references to valid blocks. ((Count/Count))
board.cache_hierarchy.iocache.tags.warmupTick            0                       # The tick when the warmup percentage was hit. (Tick)
board.cache_hierarchy.iocache.tags.tagAccesses            0                       # Number of tag accesses (Count)
board.cache_hierarchy.iocache.tags.dataAccesses            0                       # Number of data accesses (Count)
board.cache_hierarchy.iocache.tags.power_state.pwrStateResidencyTicks::UNDEFINED 6155856003979                       # Cumulative time (in ticks) in various power states (Tick)
board.cache_hierarchy.iptw_caches.demandHits::processor.start.core.mmu.itb.walker      8067522                       # number of demand (read+write) hits (Count)
board.cache_hierarchy.iptw_caches.demandHits::total      8067522                       # number of demand (read+write) hits (Count)
board.cache_hierarchy.iptw_caches.overallHits::processor.start.core.mmu.itb.walker      8067522                       # number of overall hits (Count)
board.cache_hierarchy.iptw_caches.overallHits::total      8067522                       # number of overall hits (Count)
board.cache_hierarchy.iptw_caches.demandMisses::processor.start.core.mmu.itb.walker       113396                       # number of demand (read+write) misses (Count)
board.cache_hierarchy.iptw_caches.demandMisses::total       113396                       # number of demand (read+write) misses (Count)
board.cache_hierarchy.iptw_caches.overallMisses::processor.start.core.mmu.itb.walker       113396                       # number of overall misses (Count)
board.cache_hierarchy.iptw_caches.overallMisses::total       113396                       # number of overall misses (Count)
board.cache_hierarchy.iptw_caches.demandAccesses::processor.start.core.mmu.itb.walker      8180918                       # number of demand (read+write) accesses (Count)
board.cache_hierarchy.iptw_caches.demandAccesses::total      8180918                       # number of demand (read+write) accesses (Count)
board.cache_hierarchy.iptw_caches.overallAccesses::processor.start.core.mmu.itb.walker      8180918                       # number of overall (read+write) accesses (Count)
board.cache_hierarchy.iptw_caches.overallAccesses::total      8180918                       # number of overall (read+write) accesses (Count)
board.cache_hierarchy.iptw_caches.demandMissRate::processor.start.core.mmu.itb.walker     0.013861                       # miss rate for demand accesses (Ratio)
board.cache_hierarchy.iptw_caches.demandMissRate::total     0.013861                       # miss rate for demand accesses (Ratio)
board.cache_hierarchy.iptw_caches.overallMissRate::processor.start.core.mmu.itb.walker     0.013861                       # miss rate for overall accesses (Ratio)
board.cache_hierarchy.iptw_caches.overallMissRate::total     0.013861                       # miss rate for overall accesses (Ratio)
board.cache_hierarchy.iptw_caches.blockedCycles::no_mshrs            0                       # number of cycles access was blocked (Cycle)
board.cache_hierarchy.iptw_caches.blockedCycles::no_targets            0                       # number of cycles access was blocked (Cycle)
board.cache_hierarchy.iptw_caches.blockedCauses::no_mshrs            0                       # number of times access was blocked (Count)
board.cache_hierarchy.iptw_caches.blockedCauses::no_targets            0                       # number of times access was blocked (Count)
board.cache_hierarchy.iptw_caches.avgBlocked::no_mshrs          nan                       # average number of cycles each access was blocked ((Cycle/Count))
board.cache_hierarchy.iptw_caches.avgBlocked::no_targets          nan                       # average number of cycles each access was blocked ((Cycle/Count))
board.cache_hierarchy.iptw_caches.writebacks::writebacks        74432                       # number of writebacks (Count)
board.cache_hierarchy.iptw_caches.writebacks::total        74432                       # number of writebacks (Count)
board.cache_hierarchy.iptw_caches.replacements        74432                       # number of replacements (Count)
board.cache_hierarchy.iptw_caches.ReadReq.hits::processor.start.core.mmu.itb.walker      8067522                       # number of ReadReq hits (Count)
board.cache_hierarchy.iptw_caches.ReadReq.hits::total      8067522                       # number of ReadReq hits (Count)
board.cache_hierarchy.iptw_caches.ReadReq.misses::processor.start.core.mmu.itb.walker       113396                       # number of ReadReq misses (Count)
board.cache_hierarchy.iptw_caches.ReadReq.misses::total       113396                       # number of ReadReq misses (Count)
board.cache_hierarchy.iptw_caches.ReadReq.accesses::processor.start.core.mmu.itb.walker      8180918                       # number of ReadReq accesses(hits+misses) (Count)
board.cache_hierarchy.iptw_caches.ReadReq.accesses::total      8180918                       # number of ReadReq accesses(hits+misses) (Count)
board.cache_hierarchy.iptw_caches.ReadReq.missRate::processor.start.core.mmu.itb.walker     0.013861                       # miss rate for ReadReq accesses (Ratio)
board.cache_hierarchy.iptw_caches.ReadReq.missRate::total     0.013861                       # miss rate for ReadReq accesses (Ratio)
board.cache_hierarchy.iptw_caches.power_state.pwrStateResidencyTicks::UNDEFINED 6155856003979                       # Cumulative time (in ticks) in various power states (Tick)
board.cache_hierarchy.iptw_caches.tags.tagsInUse   110.640314                       # Average ticks per tags in use ((Tick/Count))
board.cache_hierarchy.iptw_caches.tags.totalRefs      8173089                       # Total number of references to valid blocks. (Count)
board.cache_hierarchy.iptw_caches.tags.sampledRefs       113331                       # Sample count of references to valid blocks. (Count)
board.cache_hierarchy.iptw_caches.tags.avgRefs    72.116976                       # Average number of references to valid blocks. ((Count/Count))
board.cache_hierarchy.iptw_caches.tags.warmupTick    135373158                       # The tick when the warmup percentage was hit. (Tick)
board.cache_hierarchy.iptw_caches.tags.occupancies::processor.start.core.mmu.itb.walker   110.640314                       # Average occupied blocks per tick, per requestor ((Count/Tick))
board.cache_hierarchy.iptw_caches.tags.avgOccs::processor.start.core.mmu.itb.walker     0.864377                       # Average percentage of cache occupancy ((Ratio/Tick))
board.cache_hierarchy.iptw_caches.tags.avgOccs::total     0.864377                       # Average percentage of cache occupancy ((Ratio/Tick))
board.cache_hierarchy.iptw_caches.tags.occupanciesTaskId::1024           65                       # Occupied blocks per task id (Count)
board.cache_hierarchy.iptw_caches.tags.ageTaskId_1024::0            1                       # Occupied blocks per task id, per block age (Count)
board.cache_hierarchy.iptw_caches.tags.ageTaskId_1024::1            3                       # Occupied blocks per task id, per block age (Count)
board.cache_hierarchy.iptw_caches.tags.ageTaskId_1024::2           10                       # Occupied blocks per task id, per block age (Count)
board.cache_hierarchy.iptw_caches.tags.ageTaskId_1024::3           19                       # Occupied blocks per task id, per block age (Count)
board.cache_hierarchy.iptw_caches.tags.ageTaskId_1024::4           32                       # Occupied blocks per task id, per block age (Count)
board.cache_hierarchy.iptw_caches.tags.ratioOccsTaskId::1024     0.507812                       # Ratio of occupied blocks and all blocks, per task id (Ratio)
board.cache_hierarchy.iptw_caches.tags.tagAccesses     32837068                       # Number of tag accesses (Count)
board.cache_hierarchy.iptw_caches.tags.dataAccesses     32837068                       # Number of data accesses (Count)
board.cache_hierarchy.iptw_caches.tags.power_state.pwrStateResidencyTicks::UNDEFINED 6155856003979                       # Cumulative time (in ticks) in various power states (Tick)
board.cache_hierarchy.l1dcaches.demandHits::processor.start.core.data   5661158423                       # number of demand (read+write) hits (Count)
board.cache_hierarchy.l1dcaches.demandHits::total   5661158423                       # number of demand (read+write) hits (Count)
board.cache_hierarchy.l1dcaches.overallHits::processor.start.core.data   5661158423                       # number of overall hits (Count)
board.cache_hierarchy.l1dcaches.overallHits::total   5661158423                       # number of overall hits (Count)
board.cache_hierarchy.l1dcaches.demandMisses::processor.start.core.data     87062973                       # number of demand (read+write) misses (Count)
board.cache_hierarchy.l1dcaches.demandMisses::total     87062973                       # number of demand (read+write) misses (Count)
board.cache_hierarchy.l1dcaches.overallMisses::processor.start.core.data     87062973                       # number of overall misses (Count)
board.cache_hierarchy.l1dcaches.overallMisses::total     87062973                       # number of overall misses (Count)
board.cache_hierarchy.l1dcaches.demandAccesses::processor.start.core.data   5748221396                       # number of demand (read+write) accesses (Count)
board.cache_hierarchy.l1dcaches.demandAccesses::total   5748221396                       # number of demand (read+write) accesses (Count)
board.cache_hierarchy.l1dcaches.overallAccesses::processor.start.core.data   5748221396                       # number of overall (read+write) accesses (Count)
board.cache_hierarchy.l1dcaches.overallAccesses::total   5748221396                       # number of overall (read+write) accesses (Count)
board.cache_hierarchy.l1dcaches.demandMissRate::processor.start.core.data     0.015146                       # miss rate for demand accesses (Ratio)
board.cache_hierarchy.l1dcaches.demandMissRate::total     0.015146                       # miss rate for demand accesses (Ratio)
board.cache_hierarchy.l1dcaches.overallMissRate::processor.start.core.data     0.015146                       # miss rate for overall accesses (Ratio)
board.cache_hierarchy.l1dcaches.overallMissRate::total     0.015146                       # miss rate for overall accesses (Ratio)
board.cache_hierarchy.l1dcaches.blockedCycles::no_mshrs            0                       # number of cycles access was blocked (Cycle)
board.cache_hierarchy.l1dcaches.blockedCycles::no_targets            0                       # number of cycles access was blocked (Cycle)
board.cache_hierarchy.l1dcaches.blockedCauses::no_mshrs            0                       # number of times access was blocked (Count)
board.cache_hierarchy.l1dcaches.blockedCauses::no_targets            0                       # number of times access was blocked (Count)
board.cache_hierarchy.l1dcaches.avgBlocked::no_mshrs          nan                       # average number of cycles each access was blocked ((Cycle/Count))
board.cache_hierarchy.l1dcaches.avgBlocked::no_targets          nan                       # average number of cycles each access was blocked ((Cycle/Count))
board.cache_hierarchy.l1dcaches.writebacks::writebacks     88095760                       # number of writebacks (Count)
board.cache_hierarchy.l1dcaches.writebacks::total     88095760                       # number of writebacks (Count)
board.cache_hierarchy.l1dcaches.replacements     88095760                       # number of replacements (Count)
board.cache_hierarchy.l1dcaches.LoadLockedReq.hits::processor.start.core.data     17479672                       # number of LoadLockedReq hits (Count)
board.cache_hierarchy.l1dcaches.LoadLockedReq.hits::total     17479672                       # number of LoadLockedReq hits (Count)
board.cache_hierarchy.l1dcaches.LoadLockedReq.misses::processor.start.core.data       365317                       # number of LoadLockedReq misses (Count)
board.cache_hierarchy.l1dcaches.LoadLockedReq.misses::total       365317                       # number of LoadLockedReq misses (Count)
board.cache_hierarchy.l1dcaches.LoadLockedReq.accesses::processor.start.core.data     17844989                       # number of LoadLockedReq accesses(hits+misses) (Count)
board.cache_hierarchy.l1dcaches.LoadLockedReq.accesses::total     17844989                       # number of LoadLockedReq accesses(hits+misses) (Count)
board.cache_hierarchy.l1dcaches.LoadLockedReq.missRate::processor.start.core.data     0.020472                       # miss rate for LoadLockedReq accesses (Ratio)
board.cache_hierarchy.l1dcaches.LoadLockedReq.missRate::total     0.020472                       # miss rate for LoadLockedReq accesses (Ratio)
board.cache_hierarchy.l1dcaches.ReadReq.hits::processor.start.core.data   3540023564                       # number of ReadReq hits (Count)
board.cache_hierarchy.l1dcaches.ReadReq.hits::total   3540023564                       # number of ReadReq hits (Count)
board.cache_hierarchy.l1dcaches.ReadReq.misses::processor.start.core.data     61224456                       # number of ReadReq misses (Count)
board.cache_hierarchy.l1dcaches.ReadReq.misses::total     61224456                       # number of ReadReq misses (Count)
board.cache_hierarchy.l1dcaches.ReadReq.accesses::processor.start.core.data   3601248020                       # number of ReadReq accesses(hits+misses) (Count)
board.cache_hierarchy.l1dcaches.ReadReq.accesses::total   3601248020                       # number of ReadReq accesses(hits+misses) (Count)
board.cache_hierarchy.l1dcaches.ReadReq.missRate::processor.start.core.data     0.017001                       # miss rate for ReadReq accesses (Ratio)
board.cache_hierarchy.l1dcaches.ReadReq.missRate::total     0.017001                       # miss rate for ReadReq accesses (Ratio)
board.cache_hierarchy.l1dcaches.StoreCondReq.hits::processor.start.core.data     17796554                       # number of StoreCondReq hits (Count)
board.cache_hierarchy.l1dcaches.StoreCondReq.hits::total     17796554                       # number of StoreCondReq hits (Count)
board.cache_hierarchy.l1dcaches.StoreCondReq.accesses::processor.start.core.data     17796554                       # number of StoreCondReq accesses(hits+misses) (Count)
board.cache_hierarchy.l1dcaches.StoreCondReq.accesses::total     17796554                       # number of StoreCondReq accesses(hits+misses) (Count)
board.cache_hierarchy.l1dcaches.SwapReq.hits::processor.start.core.data     17776135                       # number of SwapReq hits (Count)
board.cache_hierarchy.l1dcaches.SwapReq.hits::total     17776135                       # number of SwapReq hits (Count)
board.cache_hierarchy.l1dcaches.SwapReq.misses::processor.start.core.data       871239                       # number of SwapReq misses (Count)
board.cache_hierarchy.l1dcaches.SwapReq.misses::total       871239                       # number of SwapReq misses (Count)
board.cache_hierarchy.l1dcaches.SwapReq.accesses::processor.start.core.data     18647374                       # number of SwapReq accesses(hits+misses) (Count)
board.cache_hierarchy.l1dcaches.SwapReq.accesses::total     18647374                       # number of SwapReq accesses(hits+misses) (Count)
board.cache_hierarchy.l1dcaches.SwapReq.missRate::processor.start.core.data     0.046722                       # miss rate for SwapReq accesses (Ratio)
board.cache_hierarchy.l1dcaches.SwapReq.missRate::total     0.046722                       # miss rate for SwapReq accesses (Ratio)
board.cache_hierarchy.l1dcaches.WriteReq.hits::processor.start.core.data   2121134859                       # number of WriteReq hits (Count)
board.cache_hierarchy.l1dcaches.WriteReq.hits::total   2121134859                       # number of WriteReq hits (Count)
board.cache_hierarchy.l1dcaches.WriteReq.misses::processor.start.core.data     25838517                       # number of WriteReq misses (Count)
board.cache_hierarchy.l1dcaches.WriteReq.misses::total     25838517                       # number of WriteReq misses (Count)
board.cache_hierarchy.l1dcaches.WriteReq.accesses::processor.start.core.data   2146973376                       # number of WriteReq accesses(hits+misses) (Count)
board.cache_hierarchy.l1dcaches.WriteReq.accesses::total   2146973376                       # number of WriteReq accesses(hits+misses) (Count)
board.cache_hierarchy.l1dcaches.WriteReq.missRate::processor.start.core.data     0.012035                       # miss rate for WriteReq accesses (Ratio)
board.cache_hierarchy.l1dcaches.WriteReq.missRate::total     0.012035                       # miss rate for WriteReq accesses (Ratio)
board.cache_hierarchy.l1dcaches.power_state.pwrStateResidencyTicks::UNDEFINED 6155856003979                       # Cumulative time (in ticks) in various power states (Tick)
board.cache_hierarchy.l1dcaches.prefetcher.demandMshrMisses            0                       # demands not covered by prefetchs (Count)
board.cache_hierarchy.l1dcaches.prefetcher.pfIssued            0                       # number of hwpf issued (Count)
board.cache_hierarchy.l1dcaches.prefetcher.pfUseful            0                       # number of useful prefetch (Count)
board.cache_hierarchy.l1dcaches.prefetcher.pfUsefulButMiss            0                       # number of hit on prefetch but cache block is not in an usable state (Count)
board.cache_hierarchy.l1dcaches.prefetcher.accuracy          nan                       # accuracy of the prefetcher (Count)
board.cache_hierarchy.l1dcaches.prefetcher.coverage          nan                       # coverage brought by this prefetcher (Count)
board.cache_hierarchy.l1dcaches.prefetcher.pfHitInCache            0                       # number of prefetches hitting in cache (Count)
board.cache_hierarchy.l1dcaches.prefetcher.pfHitInMSHR            0                       # number of prefetches hitting in a MSHR (Count)
board.cache_hierarchy.l1dcaches.prefetcher.pfHitInWB            0                       # number of prefetches hit in the Write Buffer (Count)
board.cache_hierarchy.l1dcaches.prefetcher.pfLate            0                       # number of late prefetches (hitting in cache, MSHR or WB) (Count)
board.cache_hierarchy.l1dcaches.prefetcher.pfIdentified            0                       # number of prefetch candidates identified (Count)
board.cache_hierarchy.l1dcaches.prefetcher.pfBufferHit            0                       # number of redundant prefetches already in prefetch queue (Count)
board.cache_hierarchy.l1dcaches.prefetcher.pfInCache            0                       # number of redundant prefetches already in cache/mshr dropped (Count)
board.cache_hierarchy.l1dcaches.prefetcher.pfRemovedDemand            0                       # number of prefetches dropped due to a demand for the same address (Count)
board.cache_hierarchy.l1dcaches.prefetcher.pfRemovedFull            0                       # number of prefetches dropped due to prefetch queue size (Count)
board.cache_hierarchy.l1dcaches.prefetcher.pfSpanPage            0                       # number of prefetches that crossed the page (Count)
board.cache_hierarchy.l1dcaches.prefetcher.pfUsefulSpanPage            0                       # number of prefetches that is useful and crossed the page (Count)
board.cache_hierarchy.l1dcaches.prefetcher.power_state.pwrStateResidencyTicks::UNDEFINED 6155856003979                       # Cumulative time (in ticks) in various power states (Tick)
board.cache_hierarchy.l1dcaches.tags.tagsInUse   511.993551                       # Average ticks per tags in use ((Tick/Count))
board.cache_hierarchy.l1dcaches.tags.totalRefs   5802483657                       # Total number of references to valid blocks. (Count)
board.cache_hierarchy.l1dcaches.tags.sampledRefs     88099411                       # Sample count of references to valid blocks. (Count)
board.cache_hierarchy.l1dcaches.tags.avgRefs    65.862911                       # Average number of references to valid blocks. ((Count/Count))
board.cache_hierarchy.l1dcaches.tags.warmupTick        14985                       # The tick when the warmup percentage was hit. (Tick)
board.cache_hierarchy.l1dcaches.tags.occupancies::processor.start.core.data   511.993551                       # Average occupied blocks per tick, per requestor ((Count/Tick))
board.cache_hierarchy.l1dcaches.tags.avgOccs::processor.start.core.data     0.999987                       # Average percentage of cache occupancy ((Ratio/Tick))
board.cache_hierarchy.l1dcaches.tags.avgOccs::total     0.999987                       # Average percentage of cache occupancy ((Ratio/Tick))
board.cache_hierarchy.l1dcaches.tags.occupanciesTaskId::1024          512                       # Occupied blocks per task id (Count)
board.cache_hierarchy.l1dcaches.tags.ageTaskId_1024::0          351                       # Occupied blocks per task id, per block age (Count)
board.cache_hierarchy.l1dcaches.tags.ageTaskId_1024::1          150                       # Occupied blocks per task id, per block age (Count)
board.cache_hierarchy.l1dcaches.tags.ageTaskId_1024::2           11                       # Occupied blocks per task id, per block age (Count)
board.cache_hierarchy.l1dcaches.tags.ratioOccsTaskId::1024            1                       # Ratio of occupied blocks and all blocks, per task id (Ratio)
board.cache_hierarchy.l1dcaches.tags.tagAccesses  46508182427                       # Number of tag accesses (Count)
board.cache_hierarchy.l1dcaches.tags.dataAccesses  46508182427                       # Number of data accesses (Count)
board.cache_hierarchy.l1dcaches.tags.power_state.pwrStateResidencyTicks::UNDEFINED 6155856003979                       # Cumulative time (in ticks) in various power states (Tick)
board.cache_hierarchy.l1icaches.demandHits::processor.start.core.inst  18351933945                       # number of demand (read+write) hits (Count)
board.cache_hierarchy.l1icaches.demandHits::total  18351933945                       # number of demand (read+write) hits (Count)
board.cache_hierarchy.l1icaches.overallHits::processor.start.core.inst  18351933945                       # number of overall hits (Count)
board.cache_hierarchy.l1icaches.overallHits::total  18351933945                       # number of overall hits (Count)
board.cache_hierarchy.l1icaches.demandMisses::processor.start.core.inst     53506874                       # number of demand (read+write) misses (Count)
board.cache_hierarchy.l1icaches.demandMisses::total     53506874                       # number of demand (read+write) misses (Count)
board.cache_hierarchy.l1icaches.overallMisses::processor.start.core.inst     53506874                       # number of overall misses (Count)
board.cache_hierarchy.l1icaches.overallMisses::total     53506874                       # number of overall misses (Count)
board.cache_hierarchy.l1icaches.demandAccesses::processor.start.core.inst  18405440819                       # number of demand (read+write) accesses (Count)
board.cache_hierarchy.l1icaches.demandAccesses::total  18405440819                       # number of demand (read+write) accesses (Count)
board.cache_hierarchy.l1icaches.overallAccesses::processor.start.core.inst  18405440819                       # number of overall (read+write) accesses (Count)
board.cache_hierarchy.l1icaches.overallAccesses::total  18405440819                       # number of overall (read+write) accesses (Count)
board.cache_hierarchy.l1icaches.demandMissRate::processor.start.core.inst     0.002907                       # miss rate for demand accesses (Ratio)
board.cache_hierarchy.l1icaches.demandMissRate::total     0.002907                       # miss rate for demand accesses (Ratio)
board.cache_hierarchy.l1icaches.overallMissRate::processor.start.core.inst     0.002907                       # miss rate for overall accesses (Ratio)
board.cache_hierarchy.l1icaches.overallMissRate::total     0.002907                       # miss rate for overall accesses (Ratio)
board.cache_hierarchy.l1icaches.blockedCycles::no_mshrs            0                       # number of cycles access was blocked (Cycle)
board.cache_hierarchy.l1icaches.blockedCycles::no_targets            0                       # number of cycles access was blocked (Cycle)
board.cache_hierarchy.l1icaches.blockedCauses::no_mshrs            0                       # number of times access was blocked (Count)
board.cache_hierarchy.l1icaches.blockedCauses::no_targets            0                       # number of times access was blocked (Count)
board.cache_hierarchy.l1icaches.avgBlocked::no_mshrs          nan                       # average number of cycles each access was blocked ((Cycle/Count))
board.cache_hierarchy.l1icaches.avgBlocked::no_targets          nan                       # average number of cycles each access was blocked ((Cycle/Count))
board.cache_hierarchy.l1icaches.writebacks::writebacks     53506352                       # number of writebacks (Count)
board.cache_hierarchy.l1icaches.writebacks::total     53506352                       # number of writebacks (Count)
board.cache_hierarchy.l1icaches.replacements     53506352                       # number of replacements (Count)
board.cache_hierarchy.l1icaches.ReadReq.hits::processor.start.core.inst  18351933945                       # number of ReadReq hits (Count)
board.cache_hierarchy.l1icaches.ReadReq.hits::total  18351933945                       # number of ReadReq hits (Count)
board.cache_hierarchy.l1icaches.ReadReq.misses::processor.start.core.inst     53506874                       # number of ReadReq misses (Count)
board.cache_hierarchy.l1icaches.ReadReq.misses::total     53506874                       # number of ReadReq misses (Count)
board.cache_hierarchy.l1icaches.ReadReq.accesses::processor.start.core.inst  18405440819                       # number of ReadReq accesses(hits+misses) (Count)
board.cache_hierarchy.l1icaches.ReadReq.accesses::total  18405440819                       # number of ReadReq accesses(hits+misses) (Count)
board.cache_hierarchy.l1icaches.ReadReq.missRate::processor.start.core.inst     0.002907                       # miss rate for ReadReq accesses (Ratio)
board.cache_hierarchy.l1icaches.ReadReq.missRate::total     0.002907                       # miss rate for ReadReq accesses (Ratio)
board.cache_hierarchy.l1icaches.power_state.pwrStateResidencyTicks::UNDEFINED 6155856003979                       # Cumulative time (in ticks) in various power states (Tick)
board.cache_hierarchy.l1icaches.prefetcher.demandMshrMisses            0                       # demands not covered by prefetchs (Count)
board.cache_hierarchy.l1icaches.prefetcher.pfIssued            0                       # number of hwpf issued (Count)
board.cache_hierarchy.l1icaches.prefetcher.pfUseful            0                       # number of useful prefetch (Count)
board.cache_hierarchy.l1icaches.prefetcher.pfUsefulButMiss            0                       # number of hit on prefetch but cache block is not in an usable state (Count)
board.cache_hierarchy.l1icaches.prefetcher.accuracy          nan                       # accuracy of the prefetcher (Count)
board.cache_hierarchy.l1icaches.prefetcher.coverage          nan                       # coverage brought by this prefetcher (Count)
board.cache_hierarchy.l1icaches.prefetcher.pfHitInCache            0                       # number of prefetches hitting in cache (Count)
board.cache_hierarchy.l1icaches.prefetcher.pfHitInMSHR            0                       # number of prefetches hitting in a MSHR (Count)
board.cache_hierarchy.l1icaches.prefetcher.pfHitInWB            0                       # number of prefetches hit in the Write Buffer (Count)
board.cache_hierarchy.l1icaches.prefetcher.pfLate            0                       # number of late prefetches (hitting in cache, MSHR or WB) (Count)
board.cache_hierarchy.l1icaches.prefetcher.pfIdentified            0                       # number of prefetch candidates identified (Count)
board.cache_hierarchy.l1icaches.prefetcher.pfBufferHit            0                       # number of redundant prefetches already in prefetch queue (Count)
board.cache_hierarchy.l1icaches.prefetcher.pfInCache            0                       # number of redundant prefetches already in cache/mshr dropped (Count)
board.cache_hierarchy.l1icaches.prefetcher.pfRemovedDemand            0                       # number of prefetches dropped due to a demand for the same address (Count)
board.cache_hierarchy.l1icaches.prefetcher.pfRemovedFull            0                       # number of prefetches dropped due to prefetch queue size (Count)
board.cache_hierarchy.l1icaches.prefetcher.pfSpanPage            0                       # number of prefetches that crossed the page (Count)
board.cache_hierarchy.l1icaches.prefetcher.pfUsefulSpanPage            0                       # number of prefetches that is useful and crossed the page (Count)
board.cache_hierarchy.l1icaches.prefetcher.power_state.pwrStateResidencyTicks::UNDEFINED 6155856003979                       # Cumulative time (in ticks) in various power states (Tick)
board.cache_hierarchy.l1icaches.tags.tagsInUse   511.942505                       # Average ticks per tags in use ((Tick/Count))
board.cache_hierarchy.l1icaches.tags.totalRefs  18405356687                       # Total number of references to valid blocks. (Count)
board.cache_hierarchy.l1icaches.tags.sampledRefs     53506362                       # Sample count of references to valid blocks. (Count)
board.cache_hierarchy.l1icaches.tags.avgRefs   343.984453                       # Average number of references to valid blocks. ((Count/Count))
board.cache_hierarchy.l1icaches.tags.warmupTick            0                       # The tick when the warmup percentage was hit. (Tick)
board.cache_hierarchy.l1icaches.tags.occupancies::processor.start.core.inst   511.942505                       # Average occupied blocks per tick, per requestor ((Count/Tick))
board.cache_hierarchy.l1icaches.tags.avgOccs::processor.start.core.inst     0.999888                       # Average percentage of cache occupancy ((Ratio/Tick))
board.cache_hierarchy.l1icaches.tags.avgOccs::total     0.999888                       # Average percentage of cache occupancy ((Ratio/Tick))
board.cache_hierarchy.l1icaches.tags.occupanciesTaskId::1024          512                       # Occupied blocks per task id (Count)
board.cache_hierarchy.l1icaches.tags.ageTaskId_1024::0          248                       # Occupied blocks per task id, per block age (Count)
board.cache_hierarchy.l1icaches.tags.ageTaskId_1024::1          251                       # Occupied blocks per task id, per block age (Count)
board.cache_hierarchy.l1icaches.tags.ageTaskId_1024::2           13                       # Occupied blocks per task id, per block age (Count)
board.cache_hierarchy.l1icaches.tags.ratioOccsTaskId::1024            1                       # Ratio of occupied blocks and all blocks, per task id (Ratio)
board.cache_hierarchy.l1icaches.tags.tagAccesses 147297033426                       # Number of tag accesses (Count)
board.cache_hierarchy.l1icaches.tags.dataAccesses 147297033426                       # Number of data accesses (Count)
board.cache_hierarchy.l1icaches.tags.power_state.pwrStateResidencyTicks::UNDEFINED 6155856003979                       # Cumulative time (in ticks) in various power states (Tick)
board.cache_hierarchy.l2buses.transDist::ReadReq       107996                       # Transaction distribution (Count)
board.cache_hierarchy.l2buses.transDist::ReadResp    116632246                       # Transaction distribution (Count)
board.cache_hierarchy.l2buses.transDist::WriteReq        60839                       # Transaction distribution (Count)
board.cache_hierarchy.l2buses.transDist::WriteResp        60839                       # Transaction distribution (Count)
board.cache_hierarchy.l2buses.transDist::WritebackDirty     51068010                       # Transaction distribution (Count)
board.cache_hierarchy.l2buses.transDist::WritebackClean     91751521                       # Transaction distribution (Count)
board.cache_hierarchy.l2buses.transDist::UpgradeReq       205636                       # Transaction distribution (Count)
board.cache_hierarchy.l2buses.transDist::UpgradeResp       205636                       # Transaction distribution (Count)
board.cache_hierarchy.l2buses.transDist::ReadExReq     26510150                       # Transaction distribution (Count)
board.cache_hierarchy.l2buses.transDist::ReadExResp     26510150                       # Transaction distribution (Count)
board.cache_hierarchy.l2buses.transDist::ReadSharedReq    116524250                       # Transaction distribution (Count)
board.cache_hierarchy.l2buses.transDist::SwapReq        10664                       # Transaction distribution (Count)
board.cache_hierarchy.l2buses.transDist::SwapResp        10664                       # Transaction distribution (Count)
board.cache_hierarchy.l2buses.pktCount_board.cache_hierarchy.l1icaches.mem_side_port::board.cache_hierarchy.l2caches.cpu_side_port    160520100                       # Packet count per connected requestor and responder (Count)
board.cache_hierarchy.l2buses.pktCount_board.cache_hierarchy.l1dcaches.mem_side_port::board.cache_hierarchy.l2caches.cpu_side_port    265053816                       # Packet count per connected requestor and responder (Count)
board.cache_hierarchy.l2buses.pktCount_board.cache_hierarchy.iptw_caches.mem_side_port::board.cache_hierarchy.l2caches.cpu_side_port       301224                       # Packet count per connected requestor and responder (Count)
board.cache_hierarchy.l2buses.pktCount_board.cache_hierarchy.dptw_caches.mem_side_port::board.cache_hierarchy.l2caches.cpu_side_port      3783461                       # Packet count per connected requestor and responder (Count)
board.cache_hierarchy.l2buses.pktCount::total    429658601                       # Packet count per connected requestor and responder (Count)
board.cache_hierarchy.l2buses.pktSize_board.cache_hierarchy.l1icaches.mem_side_port::board.cache_hierarchy.l2caches.cpu_side_port   6848846464                       # Cumulative packet size per connected requestor and responder (Byte)
board.cache_hierarchy.l2buses.pktSize_board.cache_hierarchy.l1dcaches.mem_side_port::board.cache_hierarchy.l2caches.cpu_side_port  11277019114                       # Cumulative packet size per connected requestor and responder (Byte)
board.cache_hierarchy.l2buses.pktSize_board.cache_hierarchy.iptw_caches.mem_side_port::board.cache_hierarchy.l2caches.cpu_side_port     12020992                       # Cumulative packet size per connected requestor and responder (Byte)
board.cache_hierarchy.l2buses.pktSize_board.cache_hierarchy.dptw_caches.mem_side_port::board.cache_hierarchy.l2caches.cpu_side_port    157260416                       # Cumulative packet size per connected requestor and responder (Byte)
board.cache_hierarchy.l2buses.pktSize::total  18295146986                       # Cumulative packet size per connected requestor and responder (Byte)
board.cache_hierarchy.l2buses.snoops         64534754                       # Total snoops (Count)
board.cache_hierarchy.l2buses.snoopTraffic   4130224256                       # Total snoop traffic (Byte)
board.cache_hierarchy.l2buses.snoopFanout::samples    207954289                       # Request fanout histogram (Count)
board.cache_hierarchy.l2buses.snoopFanout::mean     0.020596                       # Request fanout histogram (Count)
board.cache_hierarchy.l2buses.snoopFanout::stdev     0.156030                       # Request fanout histogram (Count)
board.cache_hierarchy.l2buses.snoopFanout::underflows            0      0.00%      0.00% # Request fanout histogram (Count)
board.cache_hierarchy.l2buses.snoopFanout::0    204100814     98.15%     98.15% # Request fanout histogram (Count)
board.cache_hierarchy.l2buses.snoopFanout::1      3428502      1.65%     99.80% # Request fanout histogram (Count)
board.cache_hierarchy.l2buses.snoopFanout::2       420459      0.20%    100.00% # Request fanout histogram (Count)
board.cache_hierarchy.l2buses.snoopFanout::3         4514      0.00%    100.00% # Request fanout histogram (Count)
board.cache_hierarchy.l2buses.snoopFanout::4            0      0.00%    100.00% # Request fanout histogram (Count)
board.cache_hierarchy.l2buses.snoopFanout::overflows            0      0.00%    100.00% # Request fanout histogram (Count)
board.cache_hierarchy.l2buses.snoopFanout::min_value            0                       # Request fanout histogram (Count)
board.cache_hierarchy.l2buses.snoopFanout::max_value            3                       # Request fanout histogram (Count)
board.cache_hierarchy.l2buses.snoopFanout::total    207954289                       # Request fanout histogram (Count)
board.cache_hierarchy.l2buses.power_state.pwrStateResidencyTicks::UNDEFINED 6155856003979                       # Cumulative time (in ticks) in various power states (Tick)
board.cache_hierarchy.l2buses.snoop_filter.totRequests    286059567                       # Total number of requests made to the snoop filter. (Count)
board.cache_hierarchy.l2buses.snoop_filter.hitSingleRequests    142666328                       # Number of requests hitting in the snoop filter with a single holder of the requested data. (Count)
board.cache_hierarchy.l2buses.snoop_filter.hitMultiRequests      1332434                       # Number of requests hitting in the snoop filter with multiple (>1) holders of the requested data. (Count)
board.cache_hierarchy.l2buses.snoop_filter.totSnoops      2689469                       # Total number of snoops made to the snoop filter. (Count)
board.cache_hierarchy.l2buses.snoop_filter.hitSingleSnoops      2521633                       # Number of snoops hitting in the snoop filter with a single holder of the requested data. (Count)
board.cache_hierarchy.l2buses.snoop_filter.hitMultiSnoops       167836                       # Number of snoops hitting in the snoop filter with multiple (>1) holders of the requested data. (Count)
board.cache_hierarchy.l2caches.demandHits::processor.start.core.mmu.dtb.walker       785358                       # number of demand (read+write) hits (Count)
board.cache_hierarchy.l2caches.demandHits::processor.start.core.mmu.itb.walker        16187                       # number of demand (read+write) hits (Count)
board.cache_hierarchy.l2caches.demandHits::processor.start.core.inst     40730961                       # number of demand (read+write) hits (Count)
board.cache_hierarchy.l2caches.demandHits::processor.start.core.data     39015286                       # number of demand (read+write) hits (Count)
board.cache_hierarchy.l2caches.demandHits::total     80547792                       # number of demand (read+write) hits (Count)
board.cache_hierarchy.l2caches.overallHits::processor.start.core.mmu.dtb.walker       785358                       # number of overall hits (Count)
board.cache_hierarchy.l2caches.overallHits::processor.start.core.mmu.itb.walker        16187                       # number of overall hits (Count)
board.cache_hierarchy.l2caches.overallHits::processor.start.core.inst     40730961                       # number of overall hits (Count)
board.cache_hierarchy.l2caches.overallHits::processor.start.core.data     39015286                       # number of overall hits (Count)
board.cache_hierarchy.l2caches.overallHits::total     80547792                       # number of overall hits (Count)
board.cache_hierarchy.l2caches.demandMisses::processor.start.core.mmu.dtb.walker       382893                       # number of demand (read+write) misses (Count)
board.cache_hierarchy.l2caches.demandMisses::processor.start.core.mmu.itb.walker        77537                       # number of demand (read+write) misses (Count)
board.cache_hierarchy.l2caches.demandMisses::processor.start.core.inst     12775913                       # number of demand (read+write) misses (Count)
board.cache_hierarchy.l2caches.demandMisses::processor.start.core.data     49059547                       # number of demand (read+write) misses (Count)
board.cache_hierarchy.l2caches.demandMisses::total     62295890                       # number of demand (read+write) misses (Count)
board.cache_hierarchy.l2caches.overallMisses::processor.start.core.mmu.dtb.walker       382893                       # number of overall misses (Count)
board.cache_hierarchy.l2caches.overallMisses::processor.start.core.mmu.itb.walker        77537                       # number of overall misses (Count)
board.cache_hierarchy.l2caches.overallMisses::processor.start.core.inst     12775913                       # number of overall misses (Count)
board.cache_hierarchy.l2caches.overallMisses::processor.start.core.data     49059547                       # number of overall misses (Count)
board.cache_hierarchy.l2caches.overallMisses::total     62295890                       # number of overall misses (Count)
board.cache_hierarchy.l2caches.demandAccesses::processor.start.core.mmu.dtb.walker      1168251                       # number of demand (read+write) accesses (Count)
board.cache_hierarchy.l2caches.demandAccesses::processor.start.core.mmu.itb.walker        93724                       # number of demand (read+write) accesses (Count)
board.cache_hierarchy.l2caches.demandAccesses::processor.start.core.inst     53506874                       # number of demand (read+write) accesses (Count)
board.cache_hierarchy.l2caches.demandAccesses::processor.start.core.data     88074833                       # number of demand (read+write) accesses (Count)
board.cache_hierarchy.l2caches.demandAccesses::total    142843682                       # number of demand (read+write) accesses (Count)
board.cache_hierarchy.l2caches.overallAccesses::processor.start.core.mmu.dtb.walker      1168251                       # number of overall (read+write) accesses (Count)
board.cache_hierarchy.l2caches.overallAccesses::processor.start.core.mmu.itb.walker        93724                       # number of overall (read+write) accesses (Count)
board.cache_hierarchy.l2caches.overallAccesses::processor.start.core.inst     53506874                       # number of overall (read+write) accesses (Count)
board.cache_hierarchy.l2caches.overallAccesses::processor.start.core.data     88074833                       # number of overall (read+write) accesses (Count)
board.cache_hierarchy.l2caches.overallAccesses::total    142843682                       # number of overall (read+write) accesses (Count)
board.cache_hierarchy.l2caches.demandMissRate::processor.start.core.mmu.dtb.walker     0.327749                       # miss rate for demand accesses (Ratio)
board.cache_hierarchy.l2caches.demandMissRate::processor.start.core.mmu.itb.walker     0.827291                       # miss rate for demand accesses (Ratio)
board.cache_hierarchy.l2caches.demandMissRate::processor.start.core.inst     0.238771                       # miss rate for demand accesses (Ratio)
board.cache_hierarchy.l2caches.demandMissRate::processor.start.core.data     0.557021                       # miss rate for demand accesses (Ratio)
board.cache_hierarchy.l2caches.demandMissRate::total     0.436112                       # miss rate for demand accesses (Ratio)
board.cache_hierarchy.l2caches.overallMissRate::processor.start.core.mmu.dtb.walker     0.327749                       # miss rate for overall accesses (Ratio)
board.cache_hierarchy.l2caches.overallMissRate::processor.start.core.mmu.itb.walker     0.827291                       # miss rate for overall accesses (Ratio)
board.cache_hierarchy.l2caches.overallMissRate::processor.start.core.inst     0.238771                       # miss rate for overall accesses (Ratio)
board.cache_hierarchy.l2caches.overallMissRate::processor.start.core.data     0.557021                       # miss rate for overall accesses (Ratio)
board.cache_hierarchy.l2caches.overallMissRate::total     0.436112                       # miss rate for overall accesses (Ratio)
board.cache_hierarchy.l2caches.blockedCycles::no_mshrs            0                       # number of cycles access was blocked (Cycle)
board.cache_hierarchy.l2caches.blockedCycles::no_targets            0                       # number of cycles access was blocked (Cycle)
board.cache_hierarchy.l2caches.blockedCauses::no_mshrs            0                       # number of times access was blocked (Count)
board.cache_hierarchy.l2caches.blockedCauses::no_targets            0                       # number of times access was blocked (Count)
board.cache_hierarchy.l2caches.avgBlocked::no_mshrs          nan                       # average number of cycles each access was blocked ((Cycle/Count))
board.cache_hierarchy.l2caches.avgBlocked::no_targets          nan                       # average number of cycles each access was blocked ((Cycle/Count))
board.cache_hierarchy.l2caches.writebacks::writebacks     64534754                       # number of writebacks (Count)
board.cache_hierarchy.l2caches.writebacks::total     64534754                       # number of writebacks (Count)
board.cache_hierarchy.l2caches.replacements     64534754                       # number of replacements (Count)
board.cache_hierarchy.l2caches.ReadExReq.hits::processor.start.core.data      4805099                       # number of ReadExReq hits (Count)
board.cache_hierarchy.l2caches.ReadExReq.hits::total      4805099                       # number of ReadExReq hits (Count)
board.cache_hierarchy.l2caches.ReadExReq.misses::processor.start.core.data     21704862                       # number of ReadExReq misses (Count)
board.cache_hierarchy.l2caches.ReadExReq.misses::total     21704862                       # number of ReadExReq misses (Count)
board.cache_hierarchy.l2caches.ReadExReq.accesses::processor.start.core.data     26509961                       # number of ReadExReq accesses(hits+misses) (Count)
board.cache_hierarchy.l2caches.ReadExReq.accesses::total     26509961                       # number of ReadExReq accesses(hits+misses) (Count)
board.cache_hierarchy.l2caches.ReadExReq.missRate::processor.start.core.data     0.818744                       # miss rate for ReadExReq accesses (Ratio)
board.cache_hierarchy.l2caches.ReadExReq.missRate::total     0.818744                       # miss rate for ReadExReq accesses (Ratio)
board.cache_hierarchy.l2caches.ReadSharedReq.hits::processor.start.core.mmu.dtb.walker       785358                       # number of ReadSharedReq hits (Count)
board.cache_hierarchy.l2caches.ReadSharedReq.hits::processor.start.core.mmu.itb.walker        16187                       # number of ReadSharedReq hits (Count)
board.cache_hierarchy.l2caches.ReadSharedReq.hits::processor.start.core.inst     40730961                       # number of ReadSharedReq hits (Count)
board.cache_hierarchy.l2caches.ReadSharedReq.hits::processor.start.core.data     34210187                       # number of ReadSharedReq hits (Count)
board.cache_hierarchy.l2caches.ReadSharedReq.hits::total     75742693                       # number of ReadSharedReq hits (Count)
board.cache_hierarchy.l2caches.ReadSharedReq.misses::processor.start.core.mmu.dtb.walker       382893                       # number of ReadSharedReq misses (Count)
board.cache_hierarchy.l2caches.ReadSharedReq.misses::processor.start.core.mmu.itb.walker        77537                       # number of ReadSharedReq misses (Count)
board.cache_hierarchy.l2caches.ReadSharedReq.misses::processor.start.core.inst     12775913                       # number of ReadSharedReq misses (Count)
board.cache_hierarchy.l2caches.ReadSharedReq.misses::processor.start.core.data     27354685                       # number of ReadSharedReq misses (Count)
board.cache_hierarchy.l2caches.ReadSharedReq.misses::total     40591028                       # number of ReadSharedReq misses (Count)
board.cache_hierarchy.l2caches.ReadSharedReq.accesses::processor.start.core.mmu.dtb.walker      1168251                       # number of ReadSharedReq accesses(hits+misses) (Count)
board.cache_hierarchy.l2caches.ReadSharedReq.accesses::processor.start.core.mmu.itb.walker        93724                       # number of ReadSharedReq accesses(hits+misses) (Count)
board.cache_hierarchy.l2caches.ReadSharedReq.accesses::processor.start.core.inst     53506874                       # number of ReadSharedReq accesses(hits+misses) (Count)
board.cache_hierarchy.l2caches.ReadSharedReq.accesses::processor.start.core.data     61564872                       # number of ReadSharedReq accesses(hits+misses) (Count)
board.cache_hierarchy.l2caches.ReadSharedReq.accesses::total    116333721                       # number of ReadSharedReq accesses(hits+misses) (Count)
board.cache_hierarchy.l2caches.ReadSharedReq.missRate::processor.start.core.mmu.dtb.walker     0.327749                       # miss rate for ReadSharedReq accesses (Ratio)
board.cache_hierarchy.l2caches.ReadSharedReq.missRate::processor.start.core.mmu.itb.walker     0.827291                       # miss rate for ReadSharedReq accesses (Ratio)
board.cache_hierarchy.l2caches.ReadSharedReq.missRate::processor.start.core.inst     0.238771                       # miss rate for ReadSharedReq accesses (Ratio)
board.cache_hierarchy.l2caches.ReadSharedReq.missRate::processor.start.core.data     0.444323                       # miss rate for ReadSharedReq accesses (Ratio)
board.cache_hierarchy.l2caches.ReadSharedReq.missRate::total     0.348919                       # miss rate for ReadSharedReq accesses (Ratio)
board.cache_hierarchy.l2caches.UpgradeReq.hits::processor.start.core.mmu.dtb.walker         1785                       # number of UpgradeReq hits (Count)
board.cache_hierarchy.l2caches.UpgradeReq.hits::processor.start.core.data       136520                       # number of UpgradeReq hits (Count)
board.cache_hierarchy.l2caches.UpgradeReq.hits::total       138305                       # number of UpgradeReq hits (Count)
board.cache_hierarchy.l2caches.UpgradeReq.misses::processor.start.core.mmu.dtb.walker          597                       # number of UpgradeReq misses (Count)
board.cache_hierarchy.l2caches.UpgradeReq.misses::processor.start.core.data        39088                       # number of UpgradeReq misses (Count)
board.cache_hierarchy.l2caches.UpgradeReq.misses::total        39685                       # number of UpgradeReq misses (Count)
board.cache_hierarchy.l2caches.UpgradeReq.accesses::processor.start.core.mmu.dtb.walker         2382                       # number of UpgradeReq accesses(hits+misses) (Count)
board.cache_hierarchy.l2caches.UpgradeReq.accesses::processor.start.core.data       175608                       # number of UpgradeReq accesses(hits+misses) (Count)
board.cache_hierarchy.l2caches.UpgradeReq.accesses::total       177990                       # number of UpgradeReq accesses(hits+misses) (Count)
board.cache_hierarchy.l2caches.UpgradeReq.missRate::processor.start.core.mmu.dtb.walker     0.250630                       # miss rate for UpgradeReq accesses (Ratio)
board.cache_hierarchy.l2caches.UpgradeReq.missRate::processor.start.core.data     0.222587                       # miss rate for UpgradeReq accesses (Ratio)
board.cache_hierarchy.l2caches.UpgradeReq.missRate::total     0.222962                       # miss rate for UpgradeReq accesses (Ratio)
board.cache_hierarchy.l2caches.WritebackClean.hits::writebacks     91430697                       # number of WritebackClean hits (Count)
board.cache_hierarchy.l2caches.WritebackClean.hits::total     91430697                       # number of WritebackClean hits (Count)
board.cache_hierarchy.l2caches.WritebackClean.accesses::writebacks     91430697                       # number of WritebackClean accesses(hits+misses) (Count)
board.cache_hierarchy.l2caches.WritebackClean.accesses::total     91430697                       # number of WritebackClean accesses(hits+misses) (Count)
board.cache_hierarchy.l2caches.WritebackDirty.hits::writebacks     51068010                       # number of WritebackDirty hits (Count)
board.cache_hierarchy.l2caches.WritebackDirty.hits::total     51068010                       # number of WritebackDirty hits (Count)
board.cache_hierarchy.l2caches.WritebackDirty.accesses::writebacks     51068010                       # number of WritebackDirty accesses(hits+misses) (Count)
board.cache_hierarchy.l2caches.WritebackDirty.accesses::total     51068010                       # number of WritebackDirty accesses(hits+misses) (Count)
board.cache_hierarchy.l2caches.power_state.pwrStateResidencyTicks::UNDEFINED 6155856003979                       # Cumulative time (in ticks) in various power states (Tick)
board.cache_hierarchy.l2caches.prefetcher.demandMshrMisses            0                       # demands not covered by prefetchs (Count)
board.cache_hierarchy.l2caches.prefetcher.pfIssued            0                       # number of hwpf issued (Count)
board.cache_hierarchy.l2caches.prefetcher.pfUseful            0                       # number of useful prefetch (Count)
board.cache_hierarchy.l2caches.prefetcher.pfUsefulButMiss            0                       # number of hit on prefetch but cache block is not in an usable state (Count)
board.cache_hierarchy.l2caches.prefetcher.accuracy          nan                       # accuracy of the prefetcher (Count)
board.cache_hierarchy.l2caches.prefetcher.coverage          nan                       # coverage brought by this prefetcher (Count)
board.cache_hierarchy.l2caches.prefetcher.pfHitInCache            0                       # number of prefetches hitting in cache (Count)
board.cache_hierarchy.l2caches.prefetcher.pfHitInMSHR            0                       # number of prefetches hitting in a MSHR (Count)
board.cache_hierarchy.l2caches.prefetcher.pfHitInWB            0                       # number of prefetches hit in the Write Buffer (Count)
board.cache_hierarchy.l2caches.prefetcher.pfLate            0                       # number of late prefetches (hitting in cache, MSHR or WB) (Count)
board.cache_hierarchy.l2caches.prefetcher.pfIdentified            0                       # number of prefetch candidates identified (Count)
board.cache_hierarchy.l2caches.prefetcher.pfBufferHit            0                       # number of redundant prefetches already in prefetch queue (Count)
board.cache_hierarchy.l2caches.prefetcher.pfInCache            0                       # number of redundant prefetches already in cache/mshr dropped (Count)
board.cache_hierarchy.l2caches.prefetcher.pfRemovedDemand            0                       # number of prefetches dropped due to a demand for the same address (Count)
board.cache_hierarchy.l2caches.prefetcher.pfRemovedFull            0                       # number of prefetches dropped due to prefetch queue size (Count)
board.cache_hierarchy.l2caches.prefetcher.pfSpanPage            0                       # number of prefetches that crossed the page (Count)
board.cache_hierarchy.l2caches.prefetcher.pfUsefulSpanPage            0                       # number of prefetches that is useful and crossed the page (Count)
board.cache_hierarchy.l2caches.prefetcher.power_state.pwrStateResidencyTicks::UNDEFINED 6155856003979                       # Cumulative time (in ticks) in various power states (Tick)
board.cache_hierarchy.l2caches.tags.tagsInUse  4095.938161                       # Average ticks per tags in use ((Tick/Count))
board.cache_hierarchy.l2caches.tags.totalRefs    285505697                       # Total number of references to valid blocks. (Count)
board.cache_hierarchy.l2caches.tags.sampledRefs     64534754                       # Sample count of references to valid blocks. (Count)
board.cache_hierarchy.l2caches.tags.avgRefs     4.424061                       # Average number of references to valid blocks. ((Count/Count))
board.cache_hierarchy.l2caches.tags.warmupTick            0                       # The tick when the warmup percentage was hit. (Tick)
board.cache_hierarchy.l2caches.tags.occupancies::writebacks   206.166311                       # Average occupied blocks per tick, per requestor ((Count/Tick))
board.cache_hierarchy.l2caches.tags.occupancies::processor.start.core.mmu.dtb.walker    18.335373                       # Average occupied blocks per tick, per requestor ((Count/Tick))
board.cache_hierarchy.l2caches.tags.occupancies::processor.start.core.mmu.itb.walker     4.302337                       # Average occupied blocks per tick, per requestor ((Count/Tick))
board.cache_hierarchy.l2caches.tags.occupancies::processor.start.core.inst  1159.607906                       # Average occupied blocks per tick, per requestor ((Count/Tick))
board.cache_hierarchy.l2caches.tags.occupancies::processor.start.core.data  2707.526235                       # Average occupied blocks per tick, per requestor ((Count/Tick))
board.cache_hierarchy.l2caches.tags.avgOccs::writebacks     0.050334                       # Average percentage of cache occupancy ((Ratio/Tick))
board.cache_hierarchy.l2caches.tags.avgOccs::processor.start.core.mmu.dtb.walker     0.004476                       # Average percentage of cache occupancy ((Ratio/Tick))
board.cache_hierarchy.l2caches.tags.avgOccs::processor.start.core.mmu.itb.walker     0.001050                       # Average percentage of cache occupancy ((Ratio/Tick))
board.cache_hierarchy.l2caches.tags.avgOccs::processor.start.core.inst     0.283107                       # Average percentage of cache occupancy ((Ratio/Tick))
board.cache_hierarchy.l2caches.tags.avgOccs::processor.start.core.data     0.661017                       # Average percentage of cache occupancy ((Ratio/Tick))
board.cache_hierarchy.l2caches.tags.avgOccs::total     0.999985                       # Average percentage of cache occupancy ((Ratio/Tick))
board.cache_hierarchy.l2caches.tags.occupanciesTaskId::1024         4096                       # Occupied blocks per task id (Count)
board.cache_hierarchy.l2caches.tags.ageTaskId_1024::0          506                       # Occupied blocks per task id, per block age (Count)
board.cache_hierarchy.l2caches.tags.ageTaskId_1024::1         1424                       # Occupied blocks per task id, per block age (Count)
board.cache_hierarchy.l2caches.tags.ageTaskId_1024::2         2166                       # Occupied blocks per task id, per block age (Count)
board.cache_hierarchy.l2caches.tags.ratioOccsTaskId::1024            1                       # Ratio of occupied blocks and all blocks, per task id (Ratio)
board.cache_hierarchy.l2caches.tags.tagAccesses   4632864914                       # Number of tag accesses (Count)
board.cache_hierarchy.l2caches.tags.dataAccesses   4632864914                       # Number of data accesses (Count)
board.cache_hierarchy.l2caches.tags.power_state.pwrStateResidencyTicks::UNDEFINED 6155856003979                       # Cumulative time (in ticks) in various power states (Tick)
board.cache_hierarchy.membus.transDist::ReadReq       107996                       # Transaction distribution (Count)
board.cache_hierarchy.membus.transDist::ReadResp     40699024                       # Transaction distribution (Count)
board.cache_hierarchy.membus.transDist::WriteReq        60839                       # Transaction distribution (Count)
board.cache_hierarchy.membus.transDist::WriteResp        60839                       # Transaction distribution (Count)
board.cache_hierarchy.membus.transDist::WritebackDirty     30255603                       # Transaction distribution (Count)
board.cache_hierarchy.membus.transDist::WritebackClean     31987617                       # Transaction distribution (Count)
board.cache_hierarchy.membus.transDist::UpgradeReq        67358                       # Transaction distribution (Count)
board.cache_hierarchy.membus.transDist::UpgradeResp        39712                       # Transaction distribution (Count)
board.cache_hierarchy.membus.transDist::ReadExReq     21704967                       # Transaction distribution (Count)
board.cache_hierarchy.membus.transDist::ReadExResp     21704835                       # Transaction distribution (Count)
board.cache_hierarchy.membus.transDist::ReadSharedReq     40591028                       # Transaction distribution (Count)
board.cache_hierarchy.membus.transDist::SwapReq        10664                       # Transaction distribution (Count)
board.cache_hierarchy.membus.transDist::SwapResp        10664                       # Transaction distribution (Count)
board.cache_hierarchy.membus.pktCount_board.cache_hierarchy.l2caches.mem_side_port::board.memory.mem_ctrl.port    186942148                       # Packet count per connected requestor and responder (Count)
board.cache_hierarchy.membus.pktCount_board.cache_hierarchy.l2caches.mem_side_port::board.platform.clint.pio        88342                       # Packet count per connected requestor and responder (Count)
board.cache_hierarchy.membus.pktCount_board.cache_hierarchy.l2caches.mem_side_port::board.platform.plic.pio        72354                       # Packet count per connected requestor and responder (Count)
board.cache_hierarchy.membus.pktCount_board.cache_hierarchy.l2caches.mem_side_port::board.bridge.cpu_side_port       198302                       # Packet count per connected requestor and responder (Count)
board.cache_hierarchy.membus.pktCount_board.cache_hierarchy.l2caches.mem_side_port::total    187301146                       # Packet count per connected requestor and responder (Count)
board.cache_hierarchy.membus.pktCount::total    187301146                       # Packet count per connected requestor and responder (Count)
board.cache_hierarchy.membus.pktSize_board.cache_hierarchy.l2caches.mem_side_port::board.memory.mem_ctrl.port   7970501312                       # Cumulative packet size per connected requestor and responder (Byte)
board.cache_hierarchy.membus.pktSize_board.cache_hierarchy.l2caches.mem_side_port::board.platform.clint.pio       225392                       # Cumulative packet size per connected requestor and responder (Byte)
board.cache_hierarchy.membus.pktSize_board.cache_hierarchy.l2caches.mem_side_port::board.platform.plic.pio       144708                       # Cumulative packet size per connected requestor and responder (Byte)
board.cache_hierarchy.membus.pktSize_board.cache_hierarchy.l2caches.mem_side_port::board.bridge.cpu_side_port       125302                       # Cumulative packet size per connected requestor and responder (Byte)
board.cache_hierarchy.membus.pktSize_board.cache_hierarchy.l2caches.mem_side_port::total   7970996714                       # Cumulative packet size per connected requestor and responder (Byte)
board.cache_hierarchy.membus.pktSize::total   7970996714                       # Cumulative packet size per connected requestor and responder (Byte)
board.cache_hierarchy.membus.snoops                 0                       # Total snoops (Count)
board.cache_hierarchy.membus.snoopTraffic            0                       # Total snoop traffic (Byte)
board.cache_hierarchy.membus.snoopFanout::samples     62542852                       # Request fanout histogram (Count)
board.cache_hierarchy.membus.snoopFanout::mean            0                       # Request fanout histogram (Count)
board.cache_hierarchy.membus.snoopFanout::stdev            0                       # Request fanout histogram (Count)
board.cache_hierarchy.membus.snoopFanout::underflows            0      0.00%      0.00% # Request fanout histogram (Count)
board.cache_hierarchy.membus.snoopFanout::0     62542852    100.00%    100.00% # Request fanout histogram (Count)
board.cache_hierarchy.membus.snoopFanout::1            0      0.00%    100.00% # Request fanout histogram (Count)
board.cache_hierarchy.membus.snoopFanout::2            0      0.00%    100.00% # Request fanout histogram (Count)
board.cache_hierarchy.membus.snoopFanout::overflows            0      0.00%    100.00% # Request fanout histogram (Count)
board.cache_hierarchy.membus.snoopFanout::min_value            0                       # Request fanout histogram (Count)
board.cache_hierarchy.membus.snoopFanout::max_value            0                       # Request fanout histogram (Count)
board.cache_hierarchy.membus.snoopFanout::total     62542852                       # Request fanout histogram (Count)
board.cache_hierarchy.membus.badaddr_responder.power_state.pwrStateResidencyTicks::UNDEFINED 6155856003979                       # Cumulative time (in ticks) in various power states (Tick)
board.cache_hierarchy.membus.power_state.pwrStateResidencyTicks::UNDEFINED 6155856003979                       # Cumulative time (in ticks) in various power states (Tick)
board.cache_hierarchy.membus.snoop_filter.totRequests    124606573                       # Total number of requests made to the snoop filter. (Count)
board.cache_hierarchy.membus.snoop_filter.hitSingleRequests     62409640                       # Number of requests hitting in the snoop filter with a single holder of the requested data. (Count)
board.cache_hierarchy.membus.snoop_filter.hitMultiRequests            0                       # Number of requests hitting in the snoop filter with multiple (>1) holders of the requested data. (Count)
board.cache_hierarchy.membus.snoop_filter.totSnoops            0                       # Total number of snoops made to the snoop filter. (Count)
board.cache_hierarchy.membus.snoop_filter.hitSingleSnoops            0                       # Number of snoops hitting in the snoop filter with a single holder of the requested data. (Count)
board.cache_hierarchy.membus.snoop_filter.hitMultiSnoops            0                       # Number of snoops hitting in the snoop filter with multiple (>1) holders of the requested data. (Count)
board.clk_domain.clock                            333                       # Clock period in ticks (Tick)
board.clk_domain.voltage_domain.voltage             1                       # Voltage in Volts (Volt)
board.disk.power_state.pwrStateResidencyTicks::UNDEFINED 6155856003979                       # Cumulative time (in ticks) in various power states (Tick)
board.ethernet.EtherDevice.postedInterrupts            0                       # Number of posts to CPU (Count)
board.ethernet.EtherDevice.descDmaReads             0                       # Number of descriptors the device read w/ DMA (Count)
board.ethernet.EtherDevice.descDmaWrites            0                       # Number of descriptors the device wrote w/ DMA (Count)
board.ethernet.EtherDevice.descDmaRdBytes            0                       # Number of descriptor bytes read w/ DMA (Count)
board.ethernet.EtherDevice.descDmaWrBytes            0                       # Number of descriptor bytes write w/ DMA (Count)
board.ethernet.EtherDevice.postedSwi                0                       # Number of software interrupts posted to CPU (Count)
board.ethernet.EtherDevice.totalSwi                 0                       # Total number of Swi written to ISR (Count)
board.ethernet.EtherDevice.coalescedSwi           nan                       # Average number of Swi's coalesced into each post ((Count/Count))
board.ethernet.EtherDevice.postedRxIdle             0                       # Number of rxIdle interrupts posted to CPU (Count)
board.ethernet.EtherDevice.totalRxIdle              0                       # Total number of RxIdle written to ISR (Count)
[...]
board.processor.switch.core.commit.opsCommitted            0                       # Number of ops (including micro ops) committed (Count)
board.processor.switch.core.commit.memRefs            0                       # Number of memory references committed (Count)
board.processor.switch.core.commit.loads            0                       # Number of loads committed (Count)
board.processor.switch.core.commit.amos             0                       # Number of atomic instructions committed (Count)
board.processor.switch.core.commit.membars            0                       # Number of memory barriers committed (Count)
board.processor.switch.core.commit.branches            0                       # Number of branches committed (Count)
board.processor.switch.core.commit.vectorInstructions            0                       # Number of committed Vector instructions. (Count)
board.processor.switch.core.commit.floating            0                       # Number of committed floating point instructions. (Count)
board.processor.switch.core.commit.integer            0                       # Number of committed integer instructions. (Count)
board.processor.switch.core.commit.functionCalls            0                       # Number of function calls committed. (Count)
board.processor.switch.core.commit.committedInstType_0::No_OpClass            0                       # Class of committed instruction (Count)
board.processor.switch.core.commit.committedInstType_0::IntAlu            0                       # Class of committed instruction (Count)
board.processor.switch.core.commit.committedInstType_0::IntMult            0                       # Class of committed instruction (Count)
board.processor.switch.core.commit.committedInstType_0::IntDiv            0                       # Class of committed instruction (Count)
board.processor.switch.core.commit.committedInstType_0::FloatAdd            0                       # Class of committed instruction (Count)
board.processor.switch.core.commit.committedInstType_0::FloatCmp            0                       # Class of committed instruction (Count)
board.processor.switch.core.commit.committedInstType_0::FloatCvt            0                       # Class of committed instruction (Count)
board.processor.switch.core.commit.committedInstType_0::FloatMult            0                       # Class of committed instruction (Count)
board.processor.switch.core.commit.committedInstType_0::FloatMultAcc            0                       # Class of committed instruction (Count)
board.processor.switch.core.commit.committedInstType_0::FloatDiv            0                       # Class of committed instruction (Count)
board.processor.switch.core.commit.committedInstType_0::FloatMisc            0                       # Class of committed instruction (Count)
board.processor.switch.core.commit.committedInstType_0::FloatSqrt            0                       # Class of committed instruction (Count)
board.processor.switch.core.commit.committedInstType_0::SimdAdd            0                       # Class of committed instruction (Count)
board.processor.switch.core.commit.committedInstType_0::SimdAddAcc            0                       # Class of committed instruction (Count)
board.processor.switch.core.commit.committedInstType_0::SimdAlu            0                       # Class of committed instruction (Count)
board.processor.switch.core.commit.committedInstType_0::SimdCmp            0                       # Class of committed instruction (Count)
board.processor.switch.core.commit.committedInstType_0::SimdCvt            0                       # Class of committed instruction (Count)
board.processor.switch.core.commit.committedInstType_0::SimdMisc            0                       # Class of committed instruction (Count)
board.processor.switch.core.commit.committedInstType_0::SimdMult            0                       # Class of committed instruction (Count)
board.processor.switch.core.commit.committedInstType_0::SimdMultAcc            0                       # Class of committed instruction (Count)
board.processor.switch.core.commit.committedInstType_0::SimdShift            0                       # Class of committed instruction (Count)
board.processor.switch.core.commit.committedInstType_0::SimdShiftAcc            0                       # Class of committed instruction (Count)
board.processor.switch.core.commit.committedInstType_0::SimdDiv            0                       # Class of committed instruction (Count)
board.processor.switch.core.commit.committedInstType_0::SimdSqrt            0                       # Class of committed instruction (Count)
board.processor.switch.core.commit.committedInstType_0::SimdFloatAdd            0                       # Class of committed instruction (Count)
board.processor.switch.core.commit.committedInstType_0::SimdFloatAlu            0                       # Class of committed instruction (Count)
board.processor.switch.core.commit.committedInstType_0::SimdFloatCmp            0                       # Class of committed instruction (Count)
board.processor.switch.core.commit.committedInstType_0::SimdFloatCvt            0                       # Class of committed instruction (Count)
board.processor.switch.core.commit.committedInstType_0::SimdFloatDiv            0                       # Class of committed instruction (Count)
board.processor.switch.core.commit.committedInstType_0::SimdFloatMisc            0                       # Class of committed instruction (Count)
board.processor.switch.core.commit.committedInstType_0::SimdFloatMult            0                       # Class of committed instruction (Count)
board.processor.switch.core.commit.committedInstType_0::SimdFloatMultAcc            0                       # Class of committed instruction (Count)
board.processor.switch.core.commit.committedInstType_0::SimdFloatSqrt            0                       # Class of committed instruction (Count)
board.processor.switch.core.commit.committedInstType_0::SimdReduceAdd            0                       # Class of committed instruction (Count)
board.processor.switch.core.commit.committedInstType_0::SimdReduceAlu            0                       # Class of committed instruction (Count)
board.processor.switch.core.commit.committedInstType_0::SimdReduceCmp            0                       # Class of committed instruction (Count)
board.processor.switch.core.commit.committedInstType_0::SimdFloatReduceAdd            0                       # Class of committed instruction (Count)
board.processor.switch.core.commit.committedInstType_0::SimdFloatReduceCmp            0                       # Class of committed instruction (Count)
board.processor.switch.core.commit.committedInstType_0::SimdAes            0                       # Class of committed instruction (Count)
board.processor.switch.core.commit.committedInstType_0::SimdAesMix            0                       # Class of committed instruction (Count)
board.processor.switch.core.commit.committedInstType_0::SimdSha1Hash            0                       # Class of committed instruction (Count)
board.processor.switch.core.commit.committedInstType_0::SimdSha1Hash2            0                       # Class of committed instruction (Count)
board.processor.switch.core.commit.committedInstType_0::SimdSha256Hash            0                       # Class of committed instruction (Count)
board.processor.switch.core.commit.committedInstType_0::SimdSha256Hash2            0                       # Class of committed instruction (Count)
board.processor.switch.core.commit.committedInstType_0::SimdShaSigma2            0                       # Class of committed instruction (Count)
board.processor.switch.core.commit.committedInstType_0::SimdShaSigma3            0                       # Class of committed instruction (Count)
board.processor.switch.core.commit.committedInstType_0::SimdPredAlu            0                       # Class of committed instruction (Count)
board.processor.switch.core.commit.committedInstType_0::MemRead            0                       # Class of committed instruction (Count)
board.processor.switch.core.commit.committedInstType_0::MemWrite            0                       # Class of committed instruction (Count)
board.processor.switch.core.commit.committedInstType_0::FloatMemRead            0                       # Class of committed instruction (Count)
board.processor.switch.core.commit.committedInstType_0::FloatMemWrite            0                       # Class of committed instruction (Count)
board.processor.switch.core.commit.committedInstType_0::IprAccess            0                       # Class of committed instruction (Count)
board.processor.switch.core.commit.committedInstType_0::InstPrefetch            0                       # Class of committed instruction (Count)
board.processor.switch.core.commit.committedInstType_0::total            0                       # Class of committed instruction (Count)
board.processor.switch.core.commit.commitEligibleSamples            0                       # number cycles where commit BW limit reached (Cycle)
board.processor.switch.core.fetch.nisnDist::samples            0                       # Number of instructions fetched each cycle (Total) (Count)
board.processor.switch.core.fetch.nisnDist::mean          nan                       # Number of instructions fetched each cycle (Total) (Count)
board.processor.switch.core.fetch.nisnDist::stdev          nan                       # Number of instructions fetched each cycle (Total) (Count)
board.processor.switch.core.fetch.nisnDist::underflows            0                       # Number of instructions fetched each cycle (Total) (Count)
board.processor.switch.core.fetch.nisnDist::0            0                       # Number of instructions fetched each cycle (Total) (Count)
board.processor.switch.core.fetch.nisnDist::1            0                       # Number of instructions fetched each cycle (Total) (Count)
board.processor.switch.core.fetch.nisnDist::2            0                       # Number of instructions fetched each cycle (Total) (Count)
board.processor.switch.core.fetch.nisnDist::3            0                       # Number of instructions fetched each cycle (Total) (Count)
board.processor.switch.core.fetch.nisnDist::4            0                       # Number of instructions fetched each cycle (Total) (Count)
board.processor.switch.core.fetch.nisnDist::5            0                       # Number of instructions fetched each cycle (Total) (Count)
board.processor.switch.core.fetch.nisnDist::6            0                       # Number of instructions fetched each cycle (Total) (Count)
board.processor.switch.core.fetch.nisnDist::7            0                       # Number of instructions fetched each cycle (Total) (Count)
board.processor.switch.core.fetch.nisnDist::8            0                       # Number of instructions fetched each cycle (Total) (Count)
board.processor.switch.core.fetch.nisnDist::overflows            0                       # Number of instructions fetched each cycle (Total) (Count)
board.processor.switch.core.fetch.nisnDist::min_value            0                       # Number of instructions fetched each cycle (Total) (Count)
board.processor.switch.core.fetch.nisnDist::max_value            0                       # Number of instructions fetched each cycle (Total) (Count)
board.processor.switch.core.fetch.nisnDist::total            0                       # Number of instructions fetched each cycle (Total) (Count)
board.processor.switch.core.fetch.idleRate          nan                       # Ratio of cycles fetch was idle (Ratio)
board.processor.switch.core.fetch.branchRate          nan                       # Number of branch fetches per cycle (Ratio)
board.processor.switch.core.fetch.rate            nan                       # Number of inst fetches per cycle ((Count/Cycle))
board.processor.switch.core.iew.idleCycles            0                       # Number of cycles IEW is idle (Cycle)
board.processor.switch.core.iew.squashCycles            0                       # Number of cycles IEW is squashing (Cycle)
board.processor.switch.core.iew.blockCycles            0                       # Number of cycles IEW is blocking (Cycle)
board.processor.switch.core.iew.unblockCycles            0                       # Number of cycles IEW is unblocking (Cycle)
board.processor.switch.core.iew.dispatchedInsts            0                       # Number of instructions dispatched to IQ (Count)
board.processor.switch.core.iew.dispSquashedInsts            0                       # Number of squashed instructions skipped by dispatch (Count)
board.processor.switch.core.iew.dispLoadInsts            0                       # Number of dispatched load instructions (Count)
board.processor.switch.core.iew.dispStoreInsts            0                       # Number of dispatched store instructions (Count)
board.processor.switch.core.iew.dispNonSpecInsts            0                       # Number of dispatched non-speculative instructions (Count)
board.processor.switch.core.iew.iqFullEvents            0                       # Number of times the IQ has become full, causing a stall (Count)
board.processor.switch.core.iew.lsqFullEvents            0                       # Number of times the LSQ has become full, causing a stall (Count)
board.processor.switch.core.iew.memOrderViolationEvents            0                       # Number of memory order violations (Count)
board.processor.switch.core.iew.predictedTakenIncorrect            0                       # Number of branches that were predicted taken incorrectly (Count)
board.processor.switch.core.iew.predictedNotTakenIncorrect            0                       # Number of branches that were predicted not taken incorrectly (Count)
board.processor.switch.core.iew.branchMispredicts            0                       # Number of branch mispredicts detected at execute (Count)
board.processor.switch.core.iew.instsToCommit            0                       # Cumulative count of insts sent to commit (Count)
board.processor.switch.core.iew.writebackCount            0                       # Cumulative count of insts written-back (Count)
board.processor.switch.core.iew.producerInst            0                       # Number of instructions producing a value (Count)
board.processor.switch.core.iew.consumerInst            0                       # Number of instructions consuming a value (Count)
board.processor.switch.core.iew.wbRate            nan                       # Insts written-back per cycle ((Count/Cycle))
board.processor.switch.core.iew.wbFanout          nan                       # Average fanout of values written-back ((Count/Count))
board.processor.switch.core.lsq0.forwLoads            0                       # Number of loads that had data forwarded from stores (Count)
board.processor.switch.core.lsq0.squashedLoads            0                       # Number of loads squashed (Count)
board.processor.switch.core.lsq0.ignoredResponses            0                       # Number of memory responses ignored because the instruction is squashed (Count)
board.processor.switch.core.lsq0.memOrderViolation            0                       # Number of memory ordering violations (Count)
board.processor.switch.core.lsq0.squashedStores            0                       # Number of stores squashed (Count)
board.processor.switch.core.lsq0.rescheduledLoads            0                       # Number of loads that were rescheduled (Count)
board.processor.switch.core.lsq0.blockedByCache            0                       # Number of times an access to memory failed due to the cache being blocked (Count)
board.processor.switch.core.mmu.dtb.readHits            0                       # read hits (Count)
board.processor.switch.core.mmu.dtb.readMisses            0                       # read misses (Count)
board.processor.switch.core.mmu.dtb.readAccesses            0                       # read accesses (Count)
board.processor.switch.core.mmu.dtb.writeHits            0                       # write hits (Count)
board.processor.switch.core.mmu.dtb.writeMisses            0                       # write misses (Count)
board.processor.switch.core.mmu.dtb.writeAccesses            0                       # write accesses (Count)
board.processor.switch.core.mmu.dtb.hits            0                       # Total TLB (read and write) hits (Count)
board.processor.switch.core.mmu.dtb.misses            0                       # Total TLB (read and write) misses (Count)
board.processor.switch.core.mmu.dtb.accesses            0                       # Total TLB (read and write) accesses (Count)
board.processor.switch.core.mmu.dtb.walker.power_state.pwrStateResidencyTicks::UNDEFINED 6155856003979                       # Cumulative time (in ticks) in various power states (Tick)
board.processor.switch.core.mmu.itb.readHits            0                       # read hits (Count)
board.processor.switch.core.mmu.itb.readMisses            0                       # read misses (Count)
board.processor.switch.core.mmu.itb.readAccesses            0                       # read accesses (Count)
board.processor.switch.core.mmu.itb.writeHits            0                       # write hits (Count)
board.processor.switch.core.mmu.itb.writeMisses            0                       # write misses (Count)
board.processor.switch.core.mmu.itb.writeAccesses            0                       # write accesses (Count)
board.processor.switch.core.mmu.itb.hits            0                       # Total TLB (read and write) hits (Count)
board.processor.switch.core.mmu.itb.misses            0                       # Total TLB (read and write) misses (Count)
board.processor.switch.core.mmu.itb.accesses            0                       # Total TLB (read and write) accesses (Count)
board.processor.switch.core.mmu.itb.walker.power_state.pwrStateResidencyTicks::UNDEFINED 6155856003979                       # Cumulative time (in ticks) in various power states (Tick)
board.processor.switch.core.power_state.pwrStateResidencyTicks::OFF 6155856003979                       # Cumulative time (in ticks) in various power states (Tick)
board.processor.switch.core.rename.serializeStallCycles            0                       # count of cycles rename stalled for serializing inst (Cycle)
board.processor.switch.core.rename.serializing            0                       # count of serializing insts renamed (Count)
board.processor.switch.core.rename.tempSerializing            0                       # count of temporary serializing insts renamed (Count)
board.processor.switch.core.rename.skidInsts            0                       # count of insts added to the skid buffer (Count)
board.processor.switch.core.rob.reads               0                       # The number of ROB reads (Count)
board.processor.switch.core.rob.writes              0                       # The number of ROB writes (Count)
board.processor.switch.core.thread_0.numInsts            0                       # Number of Instructions committed (Count)
board.processor.switch.core.thread_0.numOps            0                       # Number of Ops committed (Count)
board.processor.switch.core.thread_0.numMemRefs            0                       # Number of Memory References (Count)
board.rng.power_state.pwrStateResidencyTicks::UNDEFINED 6155856003979                       # Cumulative time (in ticks) in various power states (Tick)
board.workload.inst.arm                             0                       # number of arm instructions executed (Count)
board.workload.inst.quiesce                         5                       # number of quiesce instructions executed (Count)

---------- End Simulation Statistics   ----------
