
---------- Begin Simulation Statistics ----------
simSeconds                                   6.135990                       # Number of seconds simulated (Second)
simTicks                                 6135990151384                       # Number of ticks simulated (Tick)
finalTick                                6135990151384                       # Number of ticks from beginning of simulation (restored from checkpoints and never reset) (Tick)
simFreq                                  1000000000000                       # The number of ticks per simulated second ((Tick/Second))
hostSeconds                                  17566.59                       # Real time elapsed on the host (Second)
hostTickRate                                349298929                       # The number of ticks simulated per host second (ticks/s) ((Tick/Second))
hostMemory                                    8590228                       # Number of bytes of host memory used (Byte)
simInsts                                  15137761319                       # Number of instructions simulated (Count)
simOps                                    15163424981                       # Number of ops (including micro ops) simulated (Count)
hostInstRate                                   861736                       # Simulator instruction rate (inst/s) ((Count/Second))
hostOpRate                                     863197                       # Simulator op (including micro ops) rate (op/s) ((Count/Second))
board.bridge.power_state.pwrStateResidencyTicks::UNDEFINED 6135990151384                       # Cumulative time (in ticks) in various power states (Tick)
board.cache_hierarchy.dptw_caches.demandHits::processor.start.core.mmu.dtb.walker     43870941                       # number of demand (read+write) hits (Count)
board.cache_hierarchy.dptw_caches.demandHits::total     43870941                       # number of demand (read+write) hits (Count)
board.cache_hierarchy.dptw_caches.overallHits::processor.start.core.mmu.dtb.walker     43870941                       # number of overall hits (Count)
board.cache_hierarchy.dptw_caches.overallHits::total     43870941                       # number of overall hits (Count)
board.cache_hierarchy.dptw_caches.demandMisses::processor.start.core.mmu.dtb.walker      1292953                       # number of demand (read+write) misses (Count)
board.cache_hierarchy.dptw_caches.demandMisses::total      1292953                       # number of demand (read+write) misses (Count)
board.cache_hierarchy.dptw_caches.overallMisses::processor.start.core.mmu.dtb.walker      1292953                       # number of overall misses (Count)
board.cache_hierarchy.dptw_caches.overallMisses::total      1292953                       # number of overall misses (Count)
board.cache_hierarchy.dptw_caches.demandAccesses::processor.start.core.mmu.dtb.walker     45163894                       # number of demand (read+write) accesses (Count)
board.cache_hierarchy.dptw_caches.demandAccesses::total     45163894                       # number of demand (read+write) accesses (Count)
board.cache_hierarchy.dptw_caches.overallAccesses::processor.start.core.mmu.dtb.walker     45163894                       # number of overall (read+write) accesses (Count)
board.cache_hierarchy.dptw_caches.overallAccesses::total     45163894                       # number of overall (read+write) accesses (Count)
board.cache_hierarchy.dptw_caches.demandMissRate::processor.start.core.mmu.dtb.walker     0.028628                       # miss rate for demand accesses (Ratio)
board.cache_hierarchy.dptw_caches.demandMissRate::total     0.028628                       # miss rate for demand accesses (Ratio)
board.cache_hierarchy.dptw_caches.overallMissRate::processor.start.core.mmu.dtb.walker     0.028628                       # miss rate for overall accesses (Ratio)
board.cache_hierarchy.dptw_caches.overallMissRate::total     0.028628                       # miss rate for overall accesses (Ratio)
board.cache_hierarchy.dptw_caches.blockedCycles::no_mshrs            0                       # number of cycles access was blocked (Cycle)
board.cache_hierarchy.dptw_caches.blockedCycles::no_targets            0                       # number of cycles access was blocked (Cycle)
board.cache_hierarchy.dptw_caches.blockedCauses::no_mshrs            0                       # number of times access was blocked (Count)
board.cache_hierarchy.dptw_caches.blockedCauses::no_targets            0                       # number of times access was blocked (Count)
board.cache_hierarchy.dptw_caches.avgBlocked::no_mshrs          nan                       # average number of cycles each access was blocked ((Cycle/Count))
board.cache_hierarchy.dptw_caches.avgBlocked::no_targets          nan                       # average number of cycles each access was blocked ((Cycle/Count))
board.cache_hierarchy.dptw_caches.writebacks::writebacks      1122705                       # number of writebacks (Count)
board.cache_hierarchy.dptw_caches.writebacks::total      1122705                       # number of writebacks (Count)
board.cache_hierarchy.dptw_caches.replacements      1122705                       # number of replacements (Count)
board.cache_hierarchy.dptw_caches.ReadReq.hits::processor.start.core.mmu.dtb.walker     43860823                       # number of ReadReq hits (Count)
board.cache_hierarchy.dptw_caches.ReadReq.hits::total     43860823                       # number of ReadReq hits (Count)
board.cache_hierarchy.dptw_caches.ReadReq.misses::processor.start.core.mmu.dtb.walker      1287172                       # number of ReadReq misses (Count)
board.cache_hierarchy.dptw_caches.ReadReq.misses::total      1287172                       # number of ReadReq misses (Count)
board.cache_hierarchy.dptw_caches.ReadReq.accesses::processor.start.core.mmu.dtb.walker     45147995                       # number of ReadReq accesses(hits+misses) (Count)
board.cache_hierarchy.dptw_caches.ReadReq.accesses::total     45147995                       # number of ReadReq accesses(hits+misses) (Count)
board.cache_hierarchy.dptw_caches.ReadReq.missRate::processor.start.core.mmu.dtb.walker     0.028510                       # miss rate for ReadReq accesses (Ratio)
board.cache_hierarchy.dptw_caches.ReadReq.missRate::total     0.028510                       # miss rate for ReadReq accesses (Ratio)
board.cache_hierarchy.dptw_caches.WriteReq.hits::processor.start.core.mmu.dtb.walker        10118                       # number of WriteReq hits (Count)
board.cache_hierarchy.dptw_caches.WriteReq.hits::total        10118                       # number of WriteReq hits (Count)
board.cache_hierarchy.dptw_caches.WriteReq.misses::processor.start.core.mmu.dtb.walker         5781                       # number of WriteReq misses (Count)
board.cache_hierarchy.dptw_caches.WriteReq.misses::total         5781                       # number of WriteReq misses (Count)
board.cache_hierarchy.dptw_caches.WriteReq.accesses::processor.start.core.mmu.dtb.walker        15899                       # number of WriteReq accesses(hits+misses) (Count)
board.cache_hierarchy.dptw_caches.WriteReq.accesses::total        15899                       # number of WriteReq accesses(hits+misses) (Count)
board.cache_hierarchy.dptw_caches.WriteReq.missRate::processor.start.core.mmu.dtb.walker     0.363608                       # miss rate for WriteReq accesses (Ratio)
board.cache_hierarchy.dptw_caches.WriteReq.missRate::total     0.363608                       # miss rate for WriteReq accesses (Ratio)
board.cache_hierarchy.dptw_caches.power_state.pwrStateResidencyTicks::UNDEFINED 6135990151384                       # Cumulative time (in ticks) in various power states (Tick)
board.cache_hierarchy.dptw_caches.tags.tagsInUse   117.414567                       # Average ticks per tags in use ((Tick/Count))
board.cache_hierarchy.dptw_caches.tags.totalRefs     45153074                       # Total number of references to valid blocks. (Count)
board.cache_hierarchy.dptw_caches.tags.sampledRefs      1287077                       # Sample count of references to valid blocks. (Count)
board.cache_hierarchy.dptw_caches.tags.avgRefs    35.081875                       # Average number of references to valid blocks. ((Count/Count))
board.cache_hierarchy.dptw_caches.tags.warmupTick    135380151                       # The tick when the warmup percentage was hit. (Tick)
board.cache_hierarchy.dptw_caches.tags.occupancies::processor.start.core.mmu.dtb.walker   117.414567                       # Average occupied blocks per tick, per requestor ((Count/Tick))
board.cache_hierarchy.dptw_caches.tags.avgOccs::processor.start.core.mmu.dtb.walker     0.917301                       # Average percentage of cache occupancy ((Ratio/Tick))
board.cache_hierarchy.dptw_caches.tags.avgOccs::total     0.917301                       # Average percentage of cache occupancy ((Ratio/Tick))
board.cache_hierarchy.dptw_caches.tags.occupanciesTaskId::1024           95                       # Occupied blocks per task id (Count)
board.cache_hierarchy.dptw_caches.tags.ageTaskId_1024::0            1                       # Occupied blocks per task id, per block age (Count)
board.cache_hierarchy.dptw_caches.tags.ageTaskId_1024::1           15                       # Occupied blocks per task id, per block age (Count)
board.cache_hierarchy.dptw_caches.tags.ageTaskId_1024::2           40                       # Occupied blocks per task id, per block age (Count)
board.cache_hierarchy.dptw_caches.tags.ageTaskId_1024::3           22                       # Occupied blocks per task id, per block age (Count)
board.cache_hierarchy.dptw_caches.tags.ageTaskId_1024::4           17                       # Occupied blocks per task id, per block age (Count)
board.cache_hierarchy.dptw_caches.tags.ratioOccsTaskId::1024     0.742188                       # Ratio of occupied blocks and all blocks, per task id (Ratio)
board.cache_hierarchy.dptw_caches.tags.tagAccesses    181942748                       # Number of tag accesses (Count)
board.cache_hierarchy.dptw_caches.tags.dataAccesses    181942748                       # Number of data accesses (Count)
board.cache_hierarchy.dptw_caches.tags.power_state.pwrStateResidencyTicks::UNDEFINED 6135990151384                       # Cumulative time (in ticks) in various power states (Tick)
board.cache_hierarchy.iocache.blockedCycles::no_mshrs            0                       # number of cycles access was blocked (Cycle)
board.cache_hierarchy.iocache.blockedCycles::no_targets            0                       # number of cycles access was blocked (Cycle)
board.cache_hierarchy.iocache.blockedCauses::no_mshrs            0                       # number of times access was blocked (Count)
board.cache_hierarchy.iocache.blockedCauses::no_targets            0                       # number of times access was blocked (Count)
board.cache_hierarchy.iocache.avgBlocked::no_mshrs          nan                       # average number of cycles each access was blocked ((Cycle/Count))
board.cache_hierarchy.iocache.avgBlocked::no_targets          nan                       # average number of cycles each access was blocked ((Cycle/Count))
board.cache_hierarchy.iocache.replacements            0                       # number of replacements (Count)
board.cache_hierarchy.iocache.power_state.pwrStateResidencyTicks::UNDEFINED 6135990151384                       # Cumulative time (in ticks) in various power states (Tick)
board.cache_hierarchy.iocache.tags.tagsInUse            0                       # Average ticks per tags in use ((Tick/Count))
board.cache_hierarchy.iocache.tags.totalRefs            0                       # Total number of references to valid blocks. (Count)
board.cache_hierarchy.iocache.tags.sampledRefs            0                       # Sample count of references to valid blocks. (Count)
board.cache_hierarchy.iocache.tags.avgRefs          nan                       # Average number of references to valid blocks. ((Count/Count))
board.cache_hierarchy.iocache.tags.warmupTick            0                       # The tick when the warmup percentage was hit. (Tick)
board.cache_hierarchy.iocache.tags.tagAccesses            0                       # Number of tag accesses (Count)
board.cache_hierarchy.iocache.tags.dataAccesses            0                       # Number of data accesses (Count)
board.cache_hierarchy.iocache.tags.power_state.pwrStateResidencyTicks::UNDEFINED 6135990151384                       # Cumulative time (in ticks) in various power states (Tick)
board.cache_hierarchy.iptw_caches.demandHits::processor.start.core.mmu.itb.walker      8044120                       # number of demand (read+write) hits (Count)
board.cache_hierarchy.iptw_caches.demandHits::total      8044120                       # number of demand (read+write) hits (Count)
board.cache_hierarchy.iptw_caches.overallHits::processor.start.core.mmu.itb.walker      8044120                       # number of overall hits (Count)
board.cache_hierarchy.iptw_caches.overallHits::total      8044120                       # number of overall hits (Count)
board.cache_hierarchy.iptw_caches.demandMisses::processor.start.core.mmu.itb.walker       108775                       # number of demand (read+write) misses (Count)
board.cache_hierarchy.iptw_caches.demandMisses::total       108775                       # number of demand (read+write) misses (Count)
board.cache_hierarchy.iptw_caches.overallMisses::processor.start.core.mmu.itb.walker       108775                       # number of overall misses (Count)
board.cache_hierarchy.iptw_caches.overallMisses::total       108775                       # number of overall misses (Count)
board.cache_hierarchy.iptw_caches.demandAccesses::processor.start.core.mmu.itb.walker      8152895                       # number of demand (read+write) accesses (Count)
board.cache_hierarchy.iptw_caches.demandAccesses::total      8152895                       # number of demand (read+write) accesses (Count)
board.cache_hierarchy.iptw_caches.overallAccesses::processor.start.core.mmu.itb.walker      8152895                       # number of overall (read+write) accesses (Count)
board.cache_hierarchy.iptw_caches.overallAccesses::total      8152895                       # number of overall (read+write) accesses (Count)
board.cache_hierarchy.iptw_caches.demandMissRate::processor.start.core.mmu.itb.walker     0.013342                       # miss rate for demand accesses (Ratio)
board.cache_hierarchy.iptw_caches.demandMissRate::total     0.013342                       # miss rate for demand accesses (Ratio)
board.cache_hierarchy.iptw_caches.overallMissRate::processor.start.core.mmu.itb.walker     0.013342                       # miss rate for overall accesses (Ratio)
board.cache_hierarchy.iptw_caches.overallMissRate::total     0.013342                       # miss rate for overall accesses (Ratio)
board.cache_hierarchy.iptw_caches.blockedCycles::no_mshrs            0                       # number of cycles access was blocked (Cycle)
board.cache_hierarchy.iptw_caches.blockedCycles::no_targets            0                       # number of cycles access was blocked (Cycle)
board.cache_hierarchy.iptw_caches.blockedCauses::no_mshrs            0                       # number of times access was blocked (Count)
board.cache_hierarchy.iptw_caches.blockedCauses::no_targets            0                       # number of times access was blocked (Count)
board.cache_hierarchy.iptw_caches.avgBlocked::no_mshrs          nan                       # average number of cycles each access was blocked ((Cycle/Count))
board.cache_hierarchy.iptw_caches.avgBlocked::no_targets          nan                       # average number of cycles each access was blocked ((Cycle/Count))
board.cache_hierarchy.iptw_caches.writebacks::writebacks        71409                       # number of writebacks (Count)
board.cache_hierarchy.iptw_caches.writebacks::total        71409                       # number of writebacks (Count)
board.cache_hierarchy.iptw_caches.replacements        71409                       # number of replacements (Count)
board.cache_hierarchy.iptw_caches.ReadReq.hits::processor.start.core.mmu.itb.walker      8044120                       # number of ReadReq hits (Count)
board.cache_hierarchy.iptw_caches.ReadReq.hits::total      8044120                       # number of ReadReq hits (Count)
board.cache_hierarchy.iptw_caches.ReadReq.misses::processor.start.core.mmu.itb.walker       108775                       # number of ReadReq misses (Count)
board.cache_hierarchy.iptw_caches.ReadReq.misses::total       108775                       # number of ReadReq misses (Count)
board.cache_hierarchy.iptw_caches.ReadReq.accesses::processor.start.core.mmu.itb.walker      8152895                       # number of ReadReq accesses(hits+misses) (Count)
board.cache_hierarchy.iptw_caches.ReadReq.accesses::total      8152895                       # number of ReadReq accesses(hits+misses) (Count)
board.cache_hierarchy.iptw_caches.ReadReq.missRate::processor.start.core.mmu.itb.walker     0.013342                       # miss rate for ReadReq accesses (Ratio)
board.cache_hierarchy.iptw_caches.ReadReq.missRate::total     0.013342                       # miss rate for ReadReq accesses (Ratio)
board.cache_hierarchy.iptw_caches.power_state.pwrStateResidencyTicks::UNDEFINED 6135990151384                       # Cumulative time (in ticks) in various power states (Tick)
board.cache_hierarchy.iptw_caches.tags.tagsInUse   113.316533                       # Average ticks per tags in use ((Tick/Count))
board.cache_hierarchy.iptw_caches.tags.totalRefs      8144462                       # Total number of references to valid blocks. (Count)
board.cache_hierarchy.iptw_caches.tags.sampledRefs       108711                       # Sample count of references to valid blocks. (Count)
board.cache_hierarchy.iptw_caches.tags.avgRefs    74.918472                       # Average number of references to valid blocks. ((Count/Count))
board.cache_hierarchy.iptw_caches.tags.warmupTick    135373158                       # The tick when the warmup percentage was hit. (Tick)
board.cache_hierarchy.iptw_caches.tags.occupancies::processor.start.core.mmu.itb.walker   113.316533                       # Average occupied blocks per tick, per requestor ((Count/Tick))
board.cache_hierarchy.iptw_caches.tags.avgOccs::processor.start.core.mmu.itb.walker     0.885285                       # Average percentage of cache occupancy ((Ratio/Tick))
board.cache_hierarchy.iptw_caches.tags.avgOccs::total     0.885285                       # Average percentage of cache occupancy ((Ratio/Tick))
board.cache_hierarchy.iptw_caches.tags.occupanciesTaskId::1024           64                       # Occupied blocks per task id (Count)
board.cache_hierarchy.iptw_caches.tags.ageTaskId_1024::1            5                       # Occupied blocks per task id, per block age (Count)
board.cache_hierarchy.iptw_caches.tags.ageTaskId_1024::2            7                       # Occupied blocks per task id, per block age (Count)
board.cache_hierarchy.iptw_caches.tags.ageTaskId_1024::3           18                       # Occupied blocks per task id, per block age (Count)
board.cache_hierarchy.iptw_caches.tags.ageTaskId_1024::4           34                       # Occupied blocks per task id, per block age (Count)
board.cache_hierarchy.iptw_caches.tags.ratioOccsTaskId::1024     0.500000                       # Ratio of occupied blocks and all blocks, per task id (Ratio)
board.cache_hierarchy.iptw_caches.tags.tagAccesses     32720355                       # Number of tag accesses (Count)
board.cache_hierarchy.iptw_caches.tags.dataAccesses     32720355                       # Number of data accesses (Count)
board.cache_hierarchy.iptw_caches.tags.power_state.pwrStateResidencyTicks::UNDEFINED 6135990151384                       # Cumulative time (in ticks) in various power states (Tick)
board.cache_hierarchy.l1dcaches.demandHits::processor.start.core.data   5660878497                       # number of demand (read+write) hits (Count)
board.cache_hierarchy.l1dcaches.demandHits::total   5660878497                       # number of demand (read+write) hits (Count)
board.cache_hierarchy.l1dcaches.overallHits::processor.start.core.data   5660878497                       # number of overall hits (Count)
board.cache_hierarchy.l1dcaches.overallHits::total   5660878497                       # number of overall hits (Count)
board.cache_hierarchy.l1dcaches.demandMisses::processor.start.core.data     79147100                       # number of demand (read+write) misses (Count)
board.cache_hierarchy.l1dcaches.demandMisses::total     79147100                       # number of demand (read+write) misses (Count)
board.cache_hierarchy.l1dcaches.overallMisses::processor.start.core.data     79147100                       # number of overall misses (Count)
board.cache_hierarchy.l1dcaches.overallMisses::total     79147100                       # number of overall misses (Count)
board.cache_hierarchy.l1dcaches.demandAccesses::processor.start.core.data   5740025597                       # number of demand (read+write) accesses (Count)
board.cache_hierarchy.l1dcaches.demandAccesses::total   5740025597                       # number of demand (read+write) accesses (Count)
board.cache_hierarchy.l1dcaches.overallAccesses::processor.start.core.data   5740025597                       # number of overall (read+write) accesses (Count)
board.cache_hierarchy.l1dcaches.overallAccesses::total   5740025597                       # number of overall (read+write) accesses (Count)
board.cache_hierarchy.l1dcaches.demandMissRate::processor.start.core.data     0.013789                       # miss rate for demand accesses (Ratio)
board.cache_hierarchy.l1dcaches.demandMissRate::total     0.013789                       # miss rate for demand accesses (Ratio)
board.cache_hierarchy.l1dcaches.overallMissRate::processor.start.core.data     0.013789                       # miss rate for overall accesses (Ratio)
board.cache_hierarchy.l1dcaches.overallMissRate::total     0.013789                       # miss rate for overall accesses (Ratio)
board.cache_hierarchy.l1dcaches.blockedCycles::no_mshrs            0                       # number of cycles access was blocked (Cycle)
board.cache_hierarchy.l1dcaches.blockedCycles::no_targets            0                       # number of cycles access was blocked (Cycle)
board.cache_hierarchy.l1dcaches.blockedCauses::no_mshrs            0                       # number of times access was blocked (Count)
board.cache_hierarchy.l1dcaches.blockedCauses::no_targets            0                       # number of times access was blocked (Count)
board.cache_hierarchy.l1dcaches.avgBlocked::no_mshrs          nan                       # average number of cycles each access was blocked ((Cycle/Count))
board.cache_hierarchy.l1dcaches.avgBlocked::no_targets          nan                       # average number of cycles each access was blocked ((Cycle/Count))
board.cache_hierarchy.l1dcaches.writebacks::writebacks     80165684                       # number of writebacks (Count)
board.cache_hierarchy.l1dcaches.writebacks::total     80165684                       # number of writebacks (Count)
board.cache_hierarchy.l1dcaches.replacements     80165684                       # number of replacements (Count)
board.cache_hierarchy.l1dcaches.LoadLockedReq.hits::processor.start.core.data     17468896                       # number of LoadLockedReq hits (Count)
board.cache_hierarchy.l1dcaches.LoadLockedReq.hits::total     17468896                       # number of LoadLockedReq hits (Count)
board.cache_hierarchy.l1dcaches.LoadLockedReq.misses::processor.start.core.data       357387                       # number of LoadLockedReq misses (Count)
board.cache_hierarchy.l1dcaches.LoadLockedReq.misses::total       357387                       # number of LoadLockedReq misses (Count)
board.cache_hierarchy.l1dcaches.LoadLockedReq.accesses::processor.start.core.data     17826283                       # number of LoadLockedReq accesses(hits+misses) (Count)
board.cache_hierarchy.l1dcaches.LoadLockedReq.accesses::total     17826283                       # number of LoadLockedReq accesses(hits+misses) (Count)
board.cache_hierarchy.l1dcaches.LoadLockedReq.missRate::processor.start.core.data     0.020048                       # miss rate for LoadLockedReq accesses (Ratio)
board.cache_hierarchy.l1dcaches.LoadLockedReq.missRate::total     0.020048                       # miss rate for LoadLockedReq accesses (Ratio)
board.cache_hierarchy.l1dcaches.ReadReq.hits::processor.start.core.data   3551289970                       # number of ReadReq hits (Count)
board.cache_hierarchy.l1dcaches.ReadReq.hits::total   3551289970                       # number of ReadReq hits (Count)
board.cache_hierarchy.l1dcaches.ReadReq.misses::processor.start.core.data     58845005                       # number of ReadReq misses (Count)
board.cache_hierarchy.l1dcaches.ReadReq.misses::total     58845005                       # number of ReadReq misses (Count)
board.cache_hierarchy.l1dcaches.ReadReq.accesses::processor.start.core.data   3610134975                       # number of ReadReq accesses(hits+misses) (Count)
board.cache_hierarchy.l1dcaches.ReadReq.accesses::total   3610134975                       # number of ReadReq accesses(hits+misses) (Count)
board.cache_hierarchy.l1dcaches.ReadReq.missRate::processor.start.core.data     0.016300                       # miss rate for ReadReq accesses (Ratio)
board.cache_hierarchy.l1dcaches.ReadReq.missRate::total     0.016300                       # miss rate for ReadReq accesses (Ratio)
board.cache_hierarchy.l1dcaches.StoreCondReq.hits::processor.start.core.data     17777735                       # number of StoreCondReq hits (Count)
board.cache_hierarchy.l1dcaches.StoreCondReq.hits::total     17777735                       # number of StoreCondReq hits (Count)
board.cache_hierarchy.l1dcaches.StoreCondReq.accesses::processor.start.core.data     17777735                       # number of StoreCondReq accesses(hits+misses) (Count)
board.cache_hierarchy.l1dcaches.StoreCondReq.accesses::total     17777735                       # number of StoreCondReq accesses(hits+misses) (Count)
board.cache_hierarchy.l1dcaches.SwapReq.hits::processor.start.core.data     17700955                       # number of SwapReq hits (Count)
board.cache_hierarchy.l1dcaches.SwapReq.hits::total     17700955                       # number of SwapReq hits (Count)
board.cache_hierarchy.l1dcaches.SwapReq.misses::processor.start.core.data       857089                       # number of SwapReq misses (Count)
board.cache_hierarchy.l1dcaches.SwapReq.misses::total       857089                       # number of SwapReq misses (Count)
board.cache_hierarchy.l1dcaches.SwapReq.accesses::processor.start.core.data     18558044                       # number of SwapReq accesses(hits+misses) (Count)
board.cache_hierarchy.l1dcaches.SwapReq.accesses::total     18558044                       # number of SwapReq accesses(hits+misses) (Count)
board.cache_hierarchy.l1dcaches.SwapReq.missRate::processor.start.core.data     0.046184                       # miss rate for SwapReq accesses (Ratio)
board.cache_hierarchy.l1dcaches.SwapReq.missRate::total     0.046184                       # miss rate for SwapReq accesses (Ratio)
board.cache_hierarchy.l1dcaches.WriteReq.hits::processor.start.core.data   2109588527                       # number of WriteReq hits (Count)
board.cache_hierarchy.l1dcaches.WriteReq.hits::total   2109588527                       # number of WriteReq hits (Count)
board.cache_hierarchy.l1dcaches.WriteReq.misses::processor.start.core.data     20302095                       # number of WriteReq misses (Count)
board.cache_hierarchy.l1dcaches.WriteReq.misses::total     20302095                       # number of WriteReq misses (Count)
board.cache_hierarchy.l1dcaches.WriteReq.accesses::processor.start.core.data   2129890622                       # number of WriteReq accesses(hits+misses) (Count)
board.cache_hierarchy.l1dcaches.WriteReq.accesses::total   2129890622                       # number of WriteReq accesses(hits+misses) (Count)
board.cache_hierarchy.l1dcaches.WriteReq.missRate::processor.start.core.data     0.009532                       # miss rate for WriteReq accesses (Ratio)
board.cache_hierarchy.l1dcaches.WriteReq.missRate::total     0.009532                       # miss rate for WriteReq accesses (Ratio)
board.cache_hierarchy.l1dcaches.power_state.pwrStateResidencyTicks::UNDEFINED 6135990151384                       # Cumulative time (in ticks) in various power states (Tick)
board.cache_hierarchy.l1dcaches.prefetcher.demandMshrMisses            0                       # demands not covered by prefetchs (Count)
board.cache_hierarchy.l1dcaches.prefetcher.pfIssued            0                       # number of hwpf issued (Count)
board.cache_hierarchy.l1dcaches.prefetcher.pfUseful            0                       # number of useful prefetch (Count)
board.cache_hierarchy.l1dcaches.prefetcher.pfUsefulButMiss            0                       # number of hit on prefetch but cache block is not in an usable state (Count)
board.cache_hierarchy.l1dcaches.prefetcher.accuracy          nan                       # accuracy of the prefetcher (Count)
board.cache_hierarchy.l1dcaches.prefetcher.coverage          nan                       # coverage brought by this prefetcher (Count)
board.cache_hierarchy.l1dcaches.prefetcher.pfHitInCache            0                       # number of prefetches hitting in cache (Count)
board.cache_hierarchy.l1dcaches.prefetcher.pfHitInMSHR            0                       # number of prefetches hitting in a MSHR (Count)
board.cache_hierarchy.l1dcaches.prefetcher.pfHitInWB            0                       # number of prefetches hit in the Write Buffer (Count)
board.cache_hierarchy.l1dcaches.prefetcher.pfLate            0                       # number of late prefetches (hitting in cache, MSHR or WB) (Count)
board.cache_hierarchy.l1dcaches.prefetcher.pfIdentified            0                       # number of prefetch candidates identified (Count)
board.cache_hierarchy.l1dcaches.prefetcher.pfBufferHit            0                       # number of redundant prefetches already in prefetch queue (Count)
board.cache_hierarchy.l1dcaches.prefetcher.pfInCache            0                       # number of redundant prefetches already in cache/mshr dropped (Count)
board.cache_hierarchy.l1dcaches.prefetcher.pfRemovedDemand            0                       # number of prefetches dropped due to a demand for the same address (Count)
board.cache_hierarchy.l1dcaches.prefetcher.pfRemovedFull            0                       # number of prefetches dropped due to prefetch queue size (Count)
board.cache_hierarchy.l1dcaches.prefetcher.pfSpanPage            0                       # number of prefetches that crossed the page (Count)
board.cache_hierarchy.l1dcaches.prefetcher.pfUsefulSpanPage            0                       # number of prefetches that is useful and crossed the page (Count)
board.cache_hierarchy.l1dcaches.prefetcher.power_state.pwrStateResidencyTicks::UNDEFINED 6135990151384                       # Cumulative time (in ticks) in various power states (Tick)
board.cache_hierarchy.l1dcaches.tags.tagsInUse   511.993638                       # Average ticks per tags in use ((Tick/Count))
board.cache_hierarchy.l1dcaches.tags.totalRefs   5794148061                       # Total number of references to valid blocks. (Count)
board.cache_hierarchy.l1dcaches.tags.sampledRefs     80168966                       # Sample count of references to valid blocks. (Count)
board.cache_hierarchy.l1dcaches.tags.avgRefs    72.274202                       # Average number of references to valid blocks. ((Count/Count))
board.cache_hierarchy.l1dcaches.tags.warmupTick        14985                       # The tick when the warmup percentage was hit. (Tick)
board.cache_hierarchy.l1dcaches.tags.occupancies::processor.start.core.data   511.993638                       # Average occupied blocks per tick, per requestor ((Count/Tick))
board.cache_hierarchy.l1dcaches.tags.avgOccs::processor.start.core.data     0.999988                       # Average percentage of cache occupancy ((Ratio/Tick))
board.cache_hierarchy.l1dcaches.tags.avgOccs::total     0.999988                       # Average percentage of cache occupancy ((Ratio/Tick))
board.cache_hierarchy.l1dcaches.tags.occupanciesTaskId::1024          512                       # Occupied blocks per task id (Count)
board.cache_hierarchy.l1dcaches.tags.ageTaskId_1024::0           56                       # Occupied blocks per task id, per block age (Count)
board.cache_hierarchy.l1dcaches.tags.ageTaskId_1024::1          445                       # Occupied blocks per task id, per block age (Count)
board.cache_hierarchy.l1dcaches.tags.ageTaskId_1024::2           11                       # Occupied blocks per task id, per block age (Count)
board.cache_hierarchy.l1dcaches.tags.ratioOccsTaskId::1024            1                       # Ratio of occupied blocks and all blocks, per task id (Ratio)
board.cache_hierarchy.l1dcaches.tags.tagAccesses  46433670750                       # Number of tag accesses (Count)
board.cache_hierarchy.l1dcaches.tags.dataAccesses  46433670750                       # Number of data accesses (Count)
board.cache_hierarchy.l1dcaches.tags.power_state.pwrStateResidencyTicks::UNDEFINED 6135990151384                       # Cumulative time (in ticks) in various power states (Tick)
board.cache_hierarchy.l1icaches.demandHits::processor.start.core.inst  18278631660                       # number of demand (read+write) hits (Count)
board.cache_hierarchy.l1icaches.demandHits::total  18278631660                       # number of demand (read+write) hits (Count)
board.cache_hierarchy.l1icaches.overallHits::processor.start.core.inst  18278631660                       # number of overall hits (Count)
board.cache_hierarchy.l1icaches.overallHits::total  18278631660                       # number of overall hits (Count)
board.cache_hierarchy.l1icaches.demandMisses::processor.start.core.inst     53309148                       # number of demand (read+write) misses (Count)
board.cache_hierarchy.l1icaches.demandMisses::total     53309148                       # number of demand (read+write) misses (Count)
board.cache_hierarchy.l1icaches.overallMisses::processor.start.core.inst     53309148                       # number of overall misses (Count)
board.cache_hierarchy.l1icaches.overallMisses::total     53309148                       # number of overall misses (Count)
board.cache_hierarchy.l1icaches.demandAccesses::processor.start.core.inst  18331940808                       # number of demand (read+write) accesses (Count)
board.cache_hierarchy.l1icaches.demandAccesses::total  18331940808                       # number of demand (read+write) accesses (Count)
board.cache_hierarchy.l1icaches.overallAccesses::processor.start.core.inst  18331940808                       # number of overall (read+write) accesses (Count)
board.cache_hierarchy.l1icaches.overallAccesses::total  18331940808                       # number of overall (read+write) accesses (Count)
board.cache_hierarchy.l1icaches.demandMissRate::processor.start.core.inst     0.002908                       # miss rate for demand accesses (Ratio)
board.cache_hierarchy.l1icaches.demandMissRate::total     0.002908                       # miss rate for demand accesses (Ratio)
board.cache_hierarchy.l1icaches.overallMissRate::processor.start.core.inst     0.002908                       # miss rate for overall accesses (Ratio)
board.cache_hierarchy.l1icaches.overallMissRate::total     0.002908                       # miss rate for overall accesses (Ratio)
board.cache_hierarchy.l1icaches.blockedCycles::no_mshrs            0                       # number of cycles access was blocked (Cycle)
board.cache_hierarchy.l1icaches.blockedCycles::no_targets            0                       # number of cycles access was blocked (Cycle)
board.cache_hierarchy.l1icaches.blockedCauses::no_mshrs            0                       # number of times access was blocked (Count)
board.cache_hierarchy.l1icaches.blockedCauses::no_targets            0                       # number of times access was blocked (Count)
board.cache_hierarchy.l1icaches.avgBlocked::no_mshrs          nan                       # average number of cycles each access was blocked ((Cycle/Count))
board.cache_hierarchy.l1icaches.avgBlocked::no_targets          nan                       # average number of cycles each access was blocked ((Cycle/Count))
board.cache_hierarchy.l1icaches.writebacks::writebacks     53308626                       # number of writebacks (Count)
board.cache_hierarchy.l1icaches.writebacks::total     53308626                       # number of writebacks (Count)
board.cache_hierarchy.l1icaches.replacements     53308626                       # number of replacements (Count)
board.cache_hierarchy.l1icaches.ReadReq.hits::processor.start.core.inst  18278631660                       # number of ReadReq hits (Count)
board.cache_hierarchy.l1icaches.ReadReq.hits::total  18278631660                       # number of ReadReq hits (Count)
board.cache_hierarchy.l1icaches.ReadReq.misses::processor.start.core.inst     53309148                       # number of ReadReq misses (Count)
board.cache_hierarchy.l1icaches.ReadReq.misses::total     53309148                       # number of ReadReq misses (Count)
board.cache_hierarchy.l1icaches.ReadReq.accesses::processor.start.core.inst  18331940808                       # number of ReadReq accesses(hits+misses) (Count)
board.cache_hierarchy.l1icaches.ReadReq.accesses::total  18331940808                       # number of ReadReq accesses(hits+misses) (Count)
board.cache_hierarchy.l1icaches.ReadReq.missRate::processor.start.core.inst     0.002908                       # miss rate for ReadReq accesses (Ratio)
board.cache_hierarchy.l1icaches.ReadReq.missRate::total     0.002908                       # miss rate for ReadReq accesses (Ratio)
board.cache_hierarchy.l1icaches.power_state.pwrStateResidencyTicks::UNDEFINED 6135990151384                       # Cumulative time (in ticks) in various power states (Tick)
board.cache_hierarchy.l1icaches.prefetcher.demandMshrMisses            0                       # demands not covered by prefetchs (Count)
board.cache_hierarchy.l1icaches.prefetcher.pfIssued            0                       # number of hwpf issued (Count)
board.cache_hierarchy.l1icaches.prefetcher.pfUseful            0                       # number of useful prefetch (Count)
board.cache_hierarchy.l1icaches.prefetcher.pfUsefulButMiss            0                       # number of hit on prefetch but cache block is not in an usable state (Count)
board.cache_hierarchy.l1icaches.prefetcher.accuracy          nan                       # accuracy of the prefetcher (Count)
board.cache_hierarchy.l1icaches.prefetcher.coverage          nan                       # coverage brought by this prefetcher (Count)
board.cache_hierarchy.l1icaches.prefetcher.pfHitInCache            0                       # number of prefetches hitting in cache (Count)
board.cache_hierarchy.l1icaches.prefetcher.pfHitInMSHR            0                       # number of prefetches hitting in a MSHR (Count)
board.cache_hierarchy.l1icaches.prefetcher.pfHitInWB            0                       # number of prefetches hit in the Write Buffer (Count)
board.cache_hierarchy.l1icaches.prefetcher.pfLate            0                       # number of late prefetches (hitting in cache, MSHR or WB) (Count)
board.cache_hierarchy.l1icaches.prefetcher.pfIdentified            0                       # number of prefetch candidates identified (Count)
board.cache_hierarchy.l1icaches.prefetcher.pfBufferHit            0                       # number of redundant prefetches already in prefetch queue (Count)
board.cache_hierarchy.l1icaches.prefetcher.pfInCache            0                       # number of redundant prefetches already in cache/mshr dropped (Count)
board.cache_hierarchy.l1icaches.prefetcher.pfRemovedDemand            0                       # number of prefetches dropped due to a demand for the same address (Count)
board.cache_hierarchy.l1icaches.prefetcher.pfRemovedFull            0                       # number of prefetches dropped due to prefetch queue size (Count)
board.cache_hierarchy.l1icaches.prefetcher.pfSpanPage            0                       # number of prefetches that crossed the page (Count)
board.cache_hierarchy.l1icaches.prefetcher.pfUsefulSpanPage            0                       # number of prefetches that is useful and crossed the page (Count)
board.cache_hierarchy.l1icaches.prefetcher.power_state.pwrStateResidencyTicks::UNDEFINED 6135990151384                       # Cumulative time (in ticks) in various power states (Tick)
board.cache_hierarchy.l1icaches.tags.tagsInUse   511.965568                       # Average ticks per tags in use ((Tick/Count))
board.cache_hierarchy.l1icaches.tags.totalRefs  18331837430                       # Total number of references to valid blocks. (Count)
board.cache_hierarchy.l1icaches.tags.sampledRefs     53308636                       # Sample count of references to valid blocks. (Count)
board.cache_hierarchy.l1icaches.tags.avgRefs   343.881195                       # Average number of references to valid blocks. ((Count/Count))
board.cache_hierarchy.l1icaches.tags.warmupTick            0                       # The tick when the warmup percentage was hit. (Tick)
board.cache_hierarchy.l1icaches.tags.occupancies::processor.start.core.inst   511.965568                       # Average occupied blocks per tick, per requestor ((Count/Tick))
board.cache_hierarchy.l1icaches.tags.avgOccs::processor.start.core.inst     0.999933                       # Average percentage of cache occupancy ((Ratio/Tick))
board.cache_hierarchy.l1icaches.tags.avgOccs::total     0.999933                       # Average percentage of cache occupancy ((Ratio/Tick))
board.cache_hierarchy.l1icaches.tags.occupanciesTaskId::1024          512                       # Occupied blocks per task id (Count)
board.cache_hierarchy.l1icaches.tags.ageTaskId_1024::0          133                       # Occupied blocks per task id, per block age (Count)
board.cache_hierarchy.l1icaches.tags.ageTaskId_1024::1          365                       # Occupied blocks per task id, per block age (Count)
board.cache_hierarchy.l1icaches.tags.ageTaskId_1024::2           14                       # Occupied blocks per task id, per block age (Count)
board.cache_hierarchy.l1icaches.tags.ratioOccsTaskId::1024            1                       # Ratio of occupied blocks and all blocks, per task id (Ratio)
board.cache_hierarchy.l1icaches.tags.tagAccesses 146708835612                       # Number of tag accesses (Count)
board.cache_hierarchy.l1icaches.tags.dataAccesses 146708835612                       # Number of data accesses (Count)
board.cache_hierarchy.l1icaches.tags.power_state.pwrStateResidencyTicks::UNDEFINED 6135990151384                       # Cumulative time (in ticks) in various power states (Tick)
board.cache_hierarchy.l2buses.transDist::ReadReq       108001                       # Transaction distribution (Count)
board.cache_hierarchy.l2buses.transDist::ReadResp    114015488                       # Transaction distribution (Count)
board.cache_hierarchy.l2buses.transDist::WriteReq        60844                       # Transaction distribution (Count)
board.cache_hierarchy.l2buses.transDist::WriteResp        60844                       # Transaction distribution (Count)
board.cache_hierarchy.l2buses.transDist::WritebackDirty     43274389                       # Transaction distribution (Count)
board.cache_hierarchy.l2buses.transDist::WritebackClean     91394035                       # Transaction distribution (Count)
board.cache_hierarchy.l2buses.transDist::UpgradeReq       197879                       # Transaction distribution (Count)
board.cache_hierarchy.l2buses.transDist::UpgradeResp       197879                       # Transaction distribution (Count)
board.cache_hierarchy.l2buses.transDist::ReadExReq     20967086                       # Transaction distribution (Count)
board.cache_hierarchy.l2buses.transDist::ReadExResp     20967086                       # Transaction distribution (Count)
board.cache_hierarchy.l2buses.transDist::ReadSharedReq    113907487                       # Transaction distribution (Count)
board.cache_hierarchy.l2buses.transDist::SwapReq        10672                       # Transaction distribution (Count)
board.cache_hierarchy.l2buses.transDist::SwapResp        10672                       # Transaction distribution (Count)
board.cache_hierarchy.l2buses.pktCount_board.cache_hierarchy.l1icaches.mem_side_port::board.cache_hierarchy.l2caches.cpu_side_port    159926922                       # Packet count per connected requestor and responder (Count)
board.cache_hierarchy.l2buses.pktCount_board.cache_hierarchy.l1dcaches.mem_side_port::board.cache_hierarchy.l2caches.cpu_side_port    241247870                       # Packet count per connected requestor and responder (Count)
board.cache_hierarchy.l2buses.pktCount_board.cache_hierarchy.iptw_caches.mem_side_port::board.cache_hierarchy.l2caches.cpu_side_port       288959                       # Packet count per connected requestor and responder (Count)
board.cache_hierarchy.l2buses.pktCount_board.cache_hierarchy.dptw_caches.mem_side_port::board.cache_hierarchy.l2caches.cpu_side_port      3708611                       # Packet count per connected requestor and responder (Count)
board.cache_hierarchy.l2buses.pktCount::total    405172362                       # Packet count per connected requestor and responder (Count)
board.cache_hierarchy.l2buses.pktSize_board.cache_hierarchy.l1icaches.mem_side_port::board.cache_hierarchy.l2caches.cpu_side_port   6823537536                       # Cumulative packet size per connected requestor and responder (Byte)
board.cache_hierarchy.l2buses.pktSize_board.cache_hierarchy.l1dcaches.mem_side_port::board.cache_hierarchy.l2caches.cpu_side_port  10261945954                       # Cumulative packet size per connected requestor and responder (Byte)
board.cache_hierarchy.l2buses.pktSize_board.cache_hierarchy.iptw_caches.mem_side_port::board.cache_hierarchy.l2caches.cpu_side_port     11531776                       # Cumulative packet size per connected requestor and responder (Byte)
board.cache_hierarchy.l2buses.pktSize_board.cache_hierarchy.dptw_caches.mem_side_port::board.cache_hierarchy.l2caches.cpu_side_port    154232128                       # Cumulative packet size per connected requestor and responder (Byte)
board.cache_hierarchy.l2buses.pktSize::total  17251247394                       # Cumulative packet size per connected requestor and responder (Byte)
board.cache_hierarchy.l2buses.snoops         58391591                       # Total snoops (Count)
board.cache_hierarchy.l2buses.snoopTraffic   3737061824                       # Total snoop traffic (Byte)
board.cache_hierarchy.l2buses.snoopFanout::samples    193643560                       # Request fanout histogram (Count)
board.cache_hierarchy.l2buses.snoopFanout::mean     0.022498                       # Request fanout histogram (Count)
board.cache_hierarchy.l2buses.snoopFanout::stdev     0.162534                       # Request fanout histogram (Count)
board.cache_hierarchy.l2buses.snoopFanout::underflows            0      0.00%      0.00% # Request fanout histogram (Count)
board.cache_hierarchy.l2buses.snoopFanout::0    189711817     97.97%     97.97% # Request fanout histogram (Count)
board.cache_hierarchy.l2buses.snoopFanout::1      3510492      1.81%     99.78% # Request fanout histogram (Count)
board.cache_hierarchy.l2buses.snoopFanout::2       417639      0.22%    100.00% # Request fanout histogram (Count)
board.cache_hierarchy.l2buses.snoopFanout::3         3612      0.00%    100.00% # Request fanout histogram (Count)
board.cache_hierarchy.l2buses.snoopFanout::4            0      0.00%    100.00% # Request fanout histogram (Count)
board.cache_hierarchy.l2buses.snoopFanout::overflows            0      0.00%    100.00% # Request fanout histogram (Count)
board.cache_hierarchy.l2buses.snoopFanout::min_value            0                       # Request fanout histogram (Count)
board.cache_hierarchy.l2buses.snoopFanout::max_value            3                       # Request fanout histogram (Count)
board.cache_hierarchy.l2buses.snoopFanout::total    193643560                       # Request fanout histogram (Count)
board.cache_hierarchy.l2buses.power_state.pwrStateResidencyTicks::UNDEFINED 6135990151384                       # Cumulative time (in ticks) in various power states (Tick)
board.cache_hierarchy.l2buses.snoop_filter.totRequests    269740876                       # Total number of requests made to the snoop filter. (Count)
board.cache_hierarchy.l2buses.snoop_filter.hitSingleRequests    134518038                       # Number of requests hitting in the snoop filter with a single holder of the requested data. (Count)
board.cache_hierarchy.l2buses.snoop_filter.hitMultiRequests      1445999                       # Number of requests hitting in the snoop filter with multiple (>1) holders of the requested data. (Count)
board.cache_hierarchy.l2buses.snoop_filter.totSnoops      2651163                       # Total number of snoops made to the snoop filter. (Count)
board.cache_hierarchy.l2buses.snoop_filter.hitSingleSnoops      2483964                       # Number of snoops hitting in the snoop filter with a single holder of the requested data. (Count)
board.cache_hierarchy.l2buses.snoop_filter.hitMultiSnoops       167199                       # Number of snoops hitting in the snoop filter with multiple (>1) holders of the requested data. (Count)
board.cache_hierarchy.l2caches.demandHits::processor.start.core.mmu.dtb.walker       777536                       # number of demand (read+write) hits (Count)
board.cache_hierarchy.l2caches.demandHits::processor.start.core.mmu.itb.walker        15594                       # number of demand (read+write) hits (Count)
board.cache_hierarchy.l2caches.demandHits::processor.start.core.inst     40575028                       # number of demand (read+write) hits (Count)
board.cache_hierarchy.l2caches.demandHits::processor.start.core.data     37138930                       # number of demand (read+write) hits (Count)
board.cache_hierarchy.l2caches.demandHits::total     78507088                       # number of demand (read+write) hits (Count)
board.cache_hierarchy.l2caches.overallHits::processor.start.core.mmu.dtb.walker       777536                       # number of overall hits (Count)
board.cache_hierarchy.l2caches.overallHits::processor.start.core.mmu.itb.walker        15594                       # number of overall hits (Count)
board.cache_hierarchy.l2caches.overallHits::processor.start.core.inst     40575028                       # number of overall hits (Count)
board.cache_hierarchy.l2caches.overallHits::processor.start.core.data     37138930                       # number of overall hits (Count)
board.cache_hierarchy.l2caches.overallHits::total     78507088                       # number of overall hits (Count)
board.cache_hierarchy.l2caches.demandMisses::processor.start.core.mmu.dtb.walker       370358                       # number of demand (read+write) misses (Count)
board.cache_hierarchy.l2caches.demandMisses::processor.start.core.mmu.itb.walker        74411                       # number of demand (read+write) misses (Count)
board.cache_hierarchy.l2caches.demandMisses::processor.start.core.inst     12734120                       # number of demand (read+write) misses (Count)
board.cache_hierarchy.l2caches.demandMisses::processor.start.core.data     43005833                       # number of demand (read+write) misses (Count)
board.cache_hierarchy.l2caches.demandMisses::total     56184722                       # number of demand (read+write) misses (Count)
board.cache_hierarchy.l2caches.overallMisses::processor.start.core.mmu.dtb.walker       370358                       # number of overall misses (Count)
board.cache_hierarchy.l2caches.overallMisses::processor.start.core.mmu.itb.walker        74411                       # number of overall misses (Count)
board.cache_hierarchy.l2caches.overallMisses::processor.start.core.inst     12734120                       # number of overall misses (Count)
board.cache_hierarchy.l2caches.overallMisses::processor.start.core.data     43005833                       # number of overall misses (Count)
board.cache_hierarchy.l2caches.overallMisses::total     56184722                       # number of overall misses (Count)
board.cache_hierarchy.l2caches.demandAccesses::processor.start.core.mmu.dtb.walker      1147894                       # number of demand (read+write) accesses (Count)
board.cache_hierarchy.l2caches.demandAccesses::processor.start.core.mmu.itb.walker        90005                       # number of demand (read+write) accesses (Count)
board.cache_hierarchy.l2caches.demandAccesses::processor.start.core.inst     53309148                       # number of demand (read+write) accesses (Count)
board.cache_hierarchy.l2caches.demandAccesses::processor.start.core.data     80144763                       # number of demand (read+write) accesses (Count)
board.cache_hierarchy.l2caches.demandAccesses::total    134691810                       # number of demand (read+write) accesses (Count)
board.cache_hierarchy.l2caches.overallAccesses::processor.start.core.mmu.dtb.walker      1147894                       # number of overall (read+write) accesses (Count)
board.cache_hierarchy.l2caches.overallAccesses::processor.start.core.mmu.itb.walker        90005                       # number of overall (read+write) accesses (Count)
board.cache_hierarchy.l2caches.overallAccesses::processor.start.core.inst     53309148                       # number of overall (read+write) accesses (Count)
board.cache_hierarchy.l2caches.overallAccesses::processor.start.core.data     80144763                       # number of overall (read+write) accesses (Count)
board.cache_hierarchy.l2caches.overallAccesses::total    134691810                       # number of overall (read+write) accesses (Count)
board.cache_hierarchy.l2caches.demandMissRate::processor.start.core.mmu.dtb.walker     0.322641                       # miss rate for demand accesses (Ratio)
board.cache_hierarchy.l2caches.demandMissRate::processor.start.core.mmu.itb.walker     0.826743                       # miss rate for demand accesses (Ratio)
board.cache_hierarchy.l2caches.demandMissRate::processor.start.core.inst     0.238873                       # miss rate for demand accesses (Ratio)
board.cache_hierarchy.l2caches.demandMissRate::processor.start.core.data     0.536602                       # miss rate for demand accesses (Ratio)
board.cache_hierarchy.l2caches.demandMissRate::total     0.417135                       # miss rate for demand accesses (Ratio)
board.cache_hierarchy.l2caches.overallMissRate::processor.start.core.mmu.dtb.walker     0.322641                       # miss rate for overall accesses (Ratio)
board.cache_hierarchy.l2caches.overallMissRate::processor.start.core.mmu.itb.walker     0.826743                       # miss rate for overall accesses (Ratio)
board.cache_hierarchy.l2caches.overallMissRate::processor.start.core.inst     0.238873                       # miss rate for overall accesses (Ratio)
board.cache_hierarchy.l2caches.overallMissRate::processor.start.core.data     0.536602                       # miss rate for overall accesses (Ratio)
board.cache_hierarchy.l2caches.overallMissRate::total     0.417135                       # miss rate for overall accesses (Ratio)
board.cache_hierarchy.l2caches.blockedCycles::no_mshrs            0                       # number of cycles access was blocked (Cycle)
board.cache_hierarchy.l2caches.blockedCycles::no_targets            0                       # number of cycles access was blocked (Cycle)
board.cache_hierarchy.l2caches.blockedCauses::no_mshrs            0                       # number of times access was blocked (Count)
board.cache_hierarchy.l2caches.blockedCauses::no_targets            0                       # number of times access was blocked (Count)
board.cache_hierarchy.l2caches.avgBlocked::no_mshrs          nan                       # average number of cycles each access was blocked ((Cycle/Count))
board.cache_hierarchy.l2caches.avgBlocked::no_targets          nan                       # average number of cycles each access was blocked ((Cycle/Count))
board.cache_hierarchy.l2caches.writebacks::writebacks     58391591                       # number of writebacks (Count)
board.cache_hierarchy.l2caches.writebacks::total     58391591                       # number of writebacks (Count)
board.cache_hierarchy.l2caches.replacements     58391591                       # number of replacements (Count)
board.cache_hierarchy.l2caches.ReadExReq.hits::processor.start.core.data      4795078                       # number of ReadExReq hits (Count)
board.cache_hierarchy.l2caches.ReadExReq.hits::total      4795078                       # number of ReadExReq hits (Count)
board.cache_hierarchy.l2caches.ReadExReq.misses::processor.start.core.data     16171824                       # number of ReadExReq misses (Count)
board.cache_hierarchy.l2caches.ReadExReq.misses::total     16171824                       # number of ReadExReq misses (Count)
board.cache_hierarchy.l2caches.ReadExReq.accesses::processor.start.core.data     20966902                       # number of ReadExReq accesses(hits+misses) (Count)
board.cache_hierarchy.l2caches.ReadExReq.accesses::total     20966902                       # number of ReadExReq accesses(hits+misses) (Count)
board.cache_hierarchy.l2caches.ReadExReq.missRate::processor.start.core.data     0.771303                       # miss rate for ReadExReq accesses (Ratio)
board.cache_hierarchy.l2caches.ReadExReq.missRate::total     0.771303                       # miss rate for ReadExReq accesses (Ratio)
board.cache_hierarchy.l2caches.ReadSharedReq.hits::processor.start.core.mmu.dtb.walker       777536                       # number of ReadSharedReq hits (Count)
board.cache_hierarchy.l2caches.ReadSharedReq.hits::processor.start.core.mmu.itb.walker        15594                       # number of ReadSharedReq hits (Count)
board.cache_hierarchy.l2caches.ReadSharedReq.hits::processor.start.core.inst     40575028                       # number of ReadSharedReq hits (Count)
board.cache_hierarchy.l2caches.ReadSharedReq.hits::processor.start.core.data     32343852                       # number of ReadSharedReq hits (Count)
board.cache_hierarchy.l2caches.ReadSharedReq.hits::total     73712010                       # number of ReadSharedReq hits (Count)
board.cache_hierarchy.l2caches.ReadSharedReq.misses::processor.start.core.mmu.dtb.walker       370358                       # number of ReadSharedReq misses (Count)
board.cache_hierarchy.l2caches.ReadSharedReq.misses::processor.start.core.mmu.itb.walker        74411                       # number of ReadSharedReq misses (Count)
board.cache_hierarchy.l2caches.ReadSharedReq.misses::processor.start.core.inst     12734120                       # number of ReadSharedReq misses (Count)
board.cache_hierarchy.l2caches.ReadSharedReq.misses::processor.start.core.data     26834009                       # number of ReadSharedReq misses (Count)
board.cache_hierarchy.l2caches.ReadSharedReq.misses::total     40012898                       # number of ReadSharedReq misses (Count)
board.cache_hierarchy.l2caches.ReadSharedReq.accesses::processor.start.core.mmu.dtb.walker      1147894                       # number of ReadSharedReq accesses(hits+misses) (Count)
board.cache_hierarchy.l2caches.ReadSharedReq.accesses::processor.start.core.mmu.itb.walker        90005                       # number of ReadSharedReq accesses(hits+misses) (Count)
board.cache_hierarchy.l2caches.ReadSharedReq.accesses::processor.start.core.inst     53309148                       # number of ReadSharedReq accesses(hits+misses) (Count)
board.cache_hierarchy.l2caches.ReadSharedReq.accesses::processor.start.core.data     59177861                       # number of ReadSharedReq accesses(hits+misses) (Count)
board.cache_hierarchy.l2caches.ReadSharedReq.accesses::total    113724908                       # number of ReadSharedReq accesses(hits+misses) (Count)
board.cache_hierarchy.l2caches.ReadSharedReq.missRate::processor.start.core.mmu.dtb.walker     0.322641                       # miss rate for ReadSharedReq accesses (Ratio)
board.cache_hierarchy.l2caches.ReadSharedReq.missRate::processor.start.core.mmu.itb.walker     0.826743                       # miss rate for ReadSharedReq accesses (Ratio)
board.cache_hierarchy.l2caches.ReadSharedReq.missRate::processor.start.core.inst     0.238873                       # miss rate for ReadSharedReq accesses (Ratio)
board.cache_hierarchy.l2caches.ReadSharedReq.missRate::processor.start.core.data     0.453447                       # miss rate for ReadSharedReq accesses (Ratio)
board.cache_hierarchy.l2caches.ReadSharedReq.missRate::total     0.351839                       # miss rate for ReadSharedReq accesses (Ratio)
board.cache_hierarchy.l2caches.UpgradeReq.hits::processor.start.core.mmu.dtb.walker         1833                       # number of UpgradeReq hits (Count)
board.cache_hierarchy.l2caches.UpgradeReq.hits::processor.start.core.data       129143                       # number of UpgradeReq hits (Count)
board.cache_hierarchy.l2caches.UpgradeReq.hits::total       130976                       # number of UpgradeReq hits (Count)
board.cache_hierarchy.l2caches.UpgradeReq.misses::processor.start.core.mmu.dtb.walker          664                       # number of UpgradeReq misses (Count)
board.cache_hierarchy.l2caches.UpgradeReq.misses::processor.start.core.data        39404                       # number of UpgradeReq misses (Count)
board.cache_hierarchy.l2caches.UpgradeReq.misses::total        40068                       # number of UpgradeReq misses (Count)
board.cache_hierarchy.l2caches.UpgradeReq.accesses::processor.start.core.mmu.dtb.walker         2497                       # number of UpgradeReq accesses(hits+misses) (Count)
board.cache_hierarchy.l2caches.UpgradeReq.accesses::processor.start.core.data       168547                       # number of UpgradeReq accesses(hits+misses) (Count)
board.cache_hierarchy.l2caches.UpgradeReq.accesses::total       171044                       # number of UpgradeReq accesses(hits+misses) (Count)
board.cache_hierarchy.l2caches.UpgradeReq.missRate::processor.start.core.mmu.dtb.walker     0.265919                       # miss rate for UpgradeReq accesses (Ratio)
board.cache_hierarchy.l2caches.UpgradeReq.missRate::processor.start.core.data     0.233786                       # miss rate for UpgradeReq accesses (Ratio)
board.cache_hierarchy.l2caches.UpgradeReq.missRate::total     0.234256                       # miss rate for UpgradeReq accesses (Ratio)
board.cache_hierarchy.l2caches.WritebackClean.hits::writebacks     90933815                       # number of WritebackClean hits (Count)
board.cache_hierarchy.l2caches.WritebackClean.hits::total     90933815                       # number of WritebackClean hits (Count)
board.cache_hierarchy.l2caches.WritebackClean.accesses::writebacks     90933815                       # number of WritebackClean accesses(hits+misses) (Count)
board.cache_hierarchy.l2caches.WritebackClean.accesses::total     90933815                       # number of WritebackClean accesses(hits+misses) (Count)
board.cache_hierarchy.l2caches.WritebackDirty.hits::writebacks     43274389                       # number of WritebackDirty hits (Count)
board.cache_hierarchy.l2caches.WritebackDirty.hits::total     43274389                       # number of WritebackDirty hits (Count)
board.cache_hierarchy.l2caches.WritebackDirty.accesses::writebacks     43274389                       # number of WritebackDirty accesses(hits+misses) (Count)
board.cache_hierarchy.l2caches.WritebackDirty.accesses::total     43274389                       # number of WritebackDirty accesses(hits+misses) (Count)
board.cache_hierarchy.l2caches.power_state.pwrStateResidencyTicks::UNDEFINED 6135990151384                       # Cumulative time (in ticks) in various power states (Tick)
board.cache_hierarchy.l2caches.prefetcher.demandMshrMisses            0                       # demands not covered by prefetchs (Count)
board.cache_hierarchy.l2caches.prefetcher.pfIssued            0                       # number of hwpf issued (Count)
board.cache_hierarchy.l2caches.prefetcher.pfUseful            0                       # number of useful prefetch (Count)
board.cache_hierarchy.l2caches.prefetcher.pfUsefulButMiss            0                       # number of hit on prefetch but cache block is not in an usable state (Count)
board.cache_hierarchy.l2caches.prefetcher.accuracy          nan                       # accuracy of the prefetcher (Count)
board.cache_hierarchy.l2caches.prefetcher.coverage          nan                       # coverage brought by this prefetcher (Count)
board.cache_hierarchy.l2caches.prefetcher.pfHitInCache            0                       # number of prefetches hitting in cache (Count)
board.cache_hierarchy.l2caches.prefetcher.pfHitInMSHR            0                       # number of prefetches hitting in a MSHR (Count)
board.cache_hierarchy.l2caches.prefetcher.pfHitInWB            0                       # number of prefetches hit in the Write Buffer (Count)
board.cache_hierarchy.l2caches.prefetcher.pfLate            0                       # number of late prefetches (hitting in cache, MSHR or WB) (Count)
board.cache_hierarchy.l2caches.prefetcher.pfIdentified            0                       # number of prefetch candidates identified (Count)
board.cache_hierarchy.l2caches.prefetcher.pfBufferHit            0                       # number of redundant prefetches already in prefetch queue (Count)
board.cache_hierarchy.l2caches.prefetcher.pfInCache            0                       # number of redundant prefetches already in cache/mshr dropped (Count)
board.cache_hierarchy.l2caches.prefetcher.pfRemovedDemand            0                       # number of prefetches dropped due to a demand for the same address (Count)
board.cache_hierarchy.l2caches.prefetcher.pfRemovedFull            0                       # number of prefetches dropped due to prefetch queue size (Count)
board.cache_hierarchy.l2caches.prefetcher.pfSpanPage            0                       # number of prefetches that crossed the page (Count)
board.cache_hierarchy.l2caches.prefetcher.pfUsefulSpanPage            0                       # number of prefetches that is useful and crossed the page (Count)
board.cache_hierarchy.l2caches.prefetcher.power_state.pwrStateResidencyTicks::UNDEFINED 6135990151384                       # Cumulative time (in ticks) in various power states (Tick)
board.cache_hierarchy.l2caches.tags.tagsInUse  4095.937960                       # Average ticks per tags in use ((Tick/Count))
board.cache_hierarchy.l2caches.tags.totalRefs    269055926                       # Total number of references to valid blocks. (Count)
board.cache_hierarchy.l2caches.tags.sampledRefs     58391591                       # Sample count of references to valid blocks. (Count)
board.cache_hierarchy.l2caches.tags.avgRefs     4.607785                       # Average number of references to valid blocks. ((Count/Count))
board.cache_hierarchy.l2caches.tags.warmupTick            0                       # The tick when the warmup percentage was hit. (Tick)
board.cache_hierarchy.l2caches.tags.occupancies::writebacks   212.777782                       # Average occupied blocks per tick, per requestor ((Count/Tick))
board.cache_hierarchy.l2caches.tags.occupancies::processor.start.core.mmu.dtb.walker    19.743992                       # Average occupied blocks per tick, per requestor ((Count/Tick))
board.cache_hierarchy.l2caches.tags.occupancies::processor.start.core.mmu.itb.walker     4.207261                       # Average occupied blocks per tick, per requestor ((Count/Tick))
board.cache_hierarchy.l2caches.tags.occupancies::processor.start.core.inst  1155.960313                       # Average occupied blocks per tick, per requestor ((Count/Tick))
board.cache_hierarchy.l2caches.tags.occupancies::processor.start.core.data  2703.248612                       # Average occupied blocks per tick, per requestor ((Count/Tick))
board.cache_hierarchy.l2caches.tags.avgOccs::writebacks     0.051948                       # Average percentage of cache occupancy ((Ratio/Tick))
board.cache_hierarchy.l2caches.tags.avgOccs::processor.start.core.mmu.dtb.walker     0.004820                       # Average percentage of cache occupancy ((Ratio/Tick))
board.cache_hierarchy.l2caches.tags.avgOccs::processor.start.core.mmu.itb.walker     0.001027                       # Average percentage of cache occupancy ((Ratio/Tick))
board.cache_hierarchy.l2caches.tags.avgOccs::processor.start.core.inst     0.282217                       # Average percentage of cache occupancy ((Ratio/Tick))
board.cache_hierarchy.l2caches.tags.avgOccs::processor.start.core.data     0.659973                       # Average percentage of cache occupancy ((Ratio/Tick))
board.cache_hierarchy.l2caches.tags.avgOccs::total     0.999985                       # Average percentage of cache occupancy ((Ratio/Tick))
board.cache_hierarchy.l2caches.tags.occupanciesTaskId::1024         4096                       # Occupied blocks per task id (Count)
board.cache_hierarchy.l2caches.tags.ageTaskId_1024::0           78                       # Occupied blocks per task id, per block age (Count)
board.cache_hierarchy.l2caches.tags.ageTaskId_1024::1         1813                       # Occupied blocks per task id, per block age (Count)
board.cache_hierarchy.l2caches.tags.ageTaskId_1024::2         2204                       # Occupied blocks per task id, per block age (Count)
board.cache_hierarchy.l2caches.tags.ageTaskId_1024::3            1                       # Occupied blocks per task id, per block age (Count)
board.cache_hierarchy.l2caches.tags.ratioOccsTaskId::1024            1                       # Ratio of occupied blocks and all blocks, per task id (Ratio)
board.cache_hierarchy.l2caches.tags.tagAccesses   4363532615                       # Number of tag accesses (Count)
board.cache_hierarchy.l2caches.tags.dataAccesses   4363532615                       # Number of data accesses (Count)
board.cache_hierarchy.l2caches.tags.power_state.pwrStateResidencyTicks::UNDEFINED 6135990151384                       # Cumulative time (in ticks) in various power states (Tick)
board.cache_hierarchy.membus.transDist::ReadReq       108001                       # Transaction distribution (Count)
board.cache_hierarchy.membus.transDist::ReadResp     40120899                       # Transaction distribution (Count)
board.cache_hierarchy.membus.transDist::WriteReq        60844                       # Transaction distribution (Count)
board.cache_hierarchy.membus.transDist::WriteResp        60844                       # Transaction distribution (Count)
board.cache_hierarchy.membus.transDist::WritebackDirty     24376832                       # Transaction distribution (Count)
board.cache_hierarchy.membus.transDist::WritebackClean     31750899                       # Transaction distribution (Count)
board.cache_hierarchy.membus.transDist::UpgradeReq        66919                       # Transaction distribution (Count)
board.cache_hierarchy.membus.transDist::UpgradeResp        40084                       # Transaction distribution (Count)
board.cache_hierarchy.membus.transDist::ReadExReq     16171972                       # Transaction distribution (Count)
board.cache_hierarchy.membus.transDist::ReadExResp     16171808                       # Transaction distribution (Count)
board.cache_hierarchy.membus.transDist::ReadSharedReq     40012898                       # Transaction distribution (Count)
board.cache_hierarchy.membus.transDist::SwapReq        10672                       # Transaction distribution (Count)
board.cache_hierarchy.membus.transDist::SwapResp        10672                       # Transaction distribution (Count)
board.cache_hierarchy.membus.pktCount_board.cache_hierarchy.l2caches.mem_side_port::board.memory.mem_ctrl0.port     85703538                       # Packet count per connected requestor and responder (Count)
board.cache_hierarchy.membus.pktCount_board.cache_hierarchy.l2caches.mem_side_port::board.memory.mem_ctrl1.port     82900772                       # Packet count per connected requestor and responder (Count)
board.cache_hierarchy.membus.pktCount_board.cache_hierarchy.l2caches.mem_side_port::board.platform.clint.pio        88422                       # Packet count per connected requestor and responder (Count)
board.cache_hierarchy.membus.pktCount_board.cache_hierarchy.l2caches.mem_side_port::board.platform.plic.pio        72348                       # Packet count per connected requestor and responder (Count)
board.cache_hierarchy.membus.pktCount_board.cache_hierarchy.l2caches.mem_side_port::board.bridge.cpu_side_port       198264                       # Packet count per connected requestor and responder (Count)
board.cache_hierarchy.membus.pktCount_board.cache_hierarchy.l2caches.mem_side_port::total    168963344                       # Packet count per connected requestor and responder (Count)
board.cache_hierarchy.membus.pktCount::total    168963344                       # Packet count per connected requestor and responder (Count)
board.cache_hierarchy.membus.pktSize_board.cache_hierarchy.l2caches.mem_side_port::board.memory.mem_ctrl0.port   3653767680                       # Cumulative packet size per connected requestor and responder (Byte)
board.cache_hierarchy.membus.pktSize_board.cache_hierarchy.l2caches.mem_side_port::board.memory.mem_ctrl1.port   3534228288                       # Cumulative packet size per connected requestor and responder (Byte)
board.cache_hierarchy.membus.pktSize_board.cache_hierarchy.l2caches.mem_side_port::board.platform.clint.pio       225616                       # Cumulative packet size per connected requestor and responder (Byte)
board.cache_hierarchy.membus.pktSize_board.cache_hierarchy.l2caches.mem_side_port::board.platform.plic.pio       144696                       # Cumulative packet size per connected requestor and responder (Byte)
board.cache_hierarchy.membus.pktSize_board.cache_hierarchy.l2caches.mem_side_port::board.bridge.cpu_side_port       125274                       # Cumulative packet size per connected requestor and responder (Byte)
board.cache_hierarchy.membus.pktSize_board.cache_hierarchy.l2caches.mem_side_port::total   7188491554                       # Cumulative packet size per connected requestor and responder (Byte)
board.cache_hierarchy.membus.pktSize::total   7188491554                       # Cumulative packet size per connected requestor and responder (Byte)
board.cache_hierarchy.membus.snoops                 0                       # Total snoops (Count)
board.cache_hierarchy.membus.snoopTraffic            0                       # Total snoop traffic (Byte)
board.cache_hierarchy.membus.snoopFanout::samples     56431306                       # Request fanout histogram (Count)
board.cache_hierarchy.membus.snoopFanout::mean            0                       # Request fanout histogram (Count)
board.cache_hierarchy.membus.snoopFanout::stdev            0                       # Request fanout histogram (Count)
board.cache_hierarchy.membus.snoopFanout::underflows            0      0.00%      0.00% # Request fanout histogram (Count)
board.cache_hierarchy.membus.snoopFanout::0     56431306    100.00%    100.00% # Request fanout histogram (Count)
board.cache_hierarchy.membus.snoopFanout::1            0      0.00%    100.00% # Request fanout histogram (Count)
board.cache_hierarchy.membus.snoopFanout::2            0      0.00%    100.00% # Request fanout histogram (Count)
board.cache_hierarchy.membus.snoopFanout::overflows            0      0.00%    100.00% # Request fanout histogram (Count)
board.cache_hierarchy.membus.snoopFanout::min_value            0                       # Request fanout histogram (Count)
board.cache_hierarchy.membus.snoopFanout::max_value            0                       # Request fanout histogram (Count)
board.cache_hierarchy.membus.snoopFanout::total     56431306                       # Request fanout histogram (Count)
board.cache_hierarchy.membus.badaddr_responder.power_state.pwrStateResidencyTicks::UNDEFINED 6135990151384                       # Cumulative time (in ticks) in various power states (Tick)
board.cache_hierarchy.membus.power_state.pwrStateResidencyTicks::UNDEFINED 6135990151384                       # Cumulative time (in ticks) in various power states (Tick)
board.cache_hierarchy.membus.snoop_filter.totRequests    112379520                       # Total number of requests made to the snoop filter. (Count)
board.cache_hierarchy.membus.snoop_filter.hitSingleRequests     56297752                       # Number of requests hitting in the snoop filter with a single holder of the requested data. (Count)
board.cache_hierarchy.membus.snoop_filter.hitMultiRequests            0                       # Number of requests hitting in the snoop filter with multiple (>1) holders of the requested data. (Count)
board.cache_hierarchy.membus.snoop_filter.totSnoops            0                       # Total number of snoops made to the snoop filter. (Count)
board.cache_hierarchy.membus.snoop_filter.hitSingleSnoops            0                       # Number of snoops hitting in the snoop filter with a single holder of the requested data. (Count)
board.cache_hierarchy.membus.snoop_filter.hitMultiSnoops            0                       # Number of snoops hitting in the snoop filter with multiple (>1) holders of the requested data. (Count)
board.clk_domain.clock                            333                       # Clock period in ticks (Tick)
board.clk_domain.voltage_domain.voltage             1                       # Voltage in Volts (Volt)
board.disk.power_state.pwrStateResidencyTicks::UNDEFINED 6135990151384                       # Cumulative time (in ticks) in various power states (Tick)
board.ethernet.EtherDevice.postedInterrupts            0                       # Number of posts to CPU (Count)
board.ethernet.EtherDevice.descDmaReads             0                       # Number of descriptors the device read w/ DMA (Count)
board.ethernet.EtherDevice.descDmaWrites            0                       # Number of descriptors the device wrote w/ DMA (Count)
board.ethernet.EtherDevice.descDmaRdBytes            0                       # Number of descriptor bytes read w/ DMA (Count)
board.ethernet.EtherDevice.descDmaWrBytes            0                       # Number of descriptor bytes write w/ DMA (Count)
board.ethernet.EtherDevice.postedSwi                0                       # Number of software interrupts posted to CPU (Count)
board.ethernet.EtherDevice.totalSwi                 0                       # Total number of Swi written to ISR (Count)
[...]
board.processor.switch.core.commit.opsCommitted            0                       # Number of ops (including micro ops) committed (Count)
board.processor.switch.core.commit.memRefs            0                       # Number of memory references committed (Count)
board.processor.switch.core.commit.loads            0                       # Number of loads committed (Count)
board.processor.switch.core.commit.amos             0                       # Number of atomic instructions committed (Count)
board.processor.switch.core.commit.membars            0                       # Number of memory barriers committed (Count)
board.processor.switch.core.commit.branches            0                       # Number of branches committed (Count)
board.processor.switch.core.commit.vectorInstructions            0                       # Number of committed Vector instructions. (Count)
board.processor.switch.core.commit.floating            0                       # Number of committed floating point instructions. (Count)
board.processor.switch.core.commit.integer            0                       # Number of committed integer instructions. (Count)
board.processor.switch.core.commit.functionCalls            0                       # Number of function calls committed. (Count)
board.processor.switch.core.commit.committedInstType_0::No_OpClass            0                       # Class of committed instruction (Count)
board.processor.switch.core.commit.committedInstType_0::IntAlu            0                       # Class of committed instruction (Count)
board.processor.switch.core.commit.committedInstType_0::IntMult            0                       # Class of committed instruction (Count)
board.processor.switch.core.commit.committedInstType_0::IntDiv            0                       # Class of committed instruction (Count)
board.processor.switch.core.commit.committedInstType_0::FloatAdd            0                       # Class of committed instruction (Count)
board.processor.switch.core.commit.committedInstType_0::FloatCmp            0                       # Class of committed instruction (Count)
board.processor.switch.core.commit.committedInstType_0::FloatCvt            0                       # Class of committed instruction (Count)
board.processor.switch.core.commit.committedInstType_0::FloatMult            0                       # Class of committed instruction (Count)
board.processor.switch.core.commit.committedInstType_0::FloatMultAcc            0                       # Class of committed instruction (Count)
board.processor.switch.core.commit.committedInstType_0::FloatDiv            0                       # Class of committed instruction (Count)
board.processor.switch.core.commit.committedInstType_0::FloatMisc            0                       # Class of committed instruction (Count)
board.processor.switch.core.commit.committedInstType_0::FloatSqrt            0                       # Class of committed instruction (Count)
board.processor.switch.core.commit.committedInstType_0::SimdAdd            0                       # Class of committed instruction (Count)
board.processor.switch.core.commit.committedInstType_0::SimdAddAcc            0                       # Class of committed instruction (Count)
board.processor.switch.core.commit.committedInstType_0::SimdAlu            0                       # Class of committed instruction (Count)
board.processor.switch.core.commit.committedInstType_0::SimdCmp            0                       # Class of committed instruction (Count)
board.processor.switch.core.commit.committedInstType_0::SimdCvt            0                       # Class of committed instruction (Count)
board.processor.switch.core.commit.committedInstType_0::SimdMisc            0                       # Class of committed instruction (Count)
board.processor.switch.core.commit.committedInstType_0::SimdMult            0                       # Class of committed instruction (Count)
board.processor.switch.core.commit.committedInstType_0::SimdMultAcc            0                       # Class of committed instruction (Count)
board.processor.switch.core.commit.committedInstType_0::SimdShift            0                       # Class of committed instruction (Count)
board.processor.switch.core.commit.committedInstType_0::SimdShiftAcc            0                       # Class of committed instruction (Count)
board.processor.switch.core.commit.committedInstType_0::SimdDiv            0                       # Class of committed instruction (Count)
board.processor.switch.core.commit.committedInstType_0::SimdSqrt            0                       # Class of committed instruction (Count)
board.processor.switch.core.commit.committedInstType_0::SimdFloatAdd            0                       # Class of committed instruction (Count)
board.processor.switch.core.commit.committedInstType_0::SimdFloatAlu            0                       # Class of committed instruction (Count)
board.processor.switch.core.commit.committedInstType_0::SimdFloatCmp            0                       # Class of committed instruction (Count)
board.processor.switch.core.commit.committedInstType_0::SimdFloatCvt            0                       # Class of committed instruction (Count)
board.processor.switch.core.commit.committedInstType_0::SimdFloatDiv            0                       # Class of committed instruction (Count)
board.processor.switch.core.commit.committedInstType_0::SimdFloatMisc            0                       # Class of committed instruction (Count)
board.processor.switch.core.commit.committedInstType_0::SimdFloatMult            0                       # Class of committed instruction (Count)
board.processor.switch.core.commit.committedInstType_0::SimdFloatMultAcc            0                       # Class of committed instruction (Count)
board.processor.switch.core.commit.committedInstType_0::SimdFloatSqrt            0                       # Class of committed instruction (Count)
board.processor.switch.core.commit.committedInstType_0::SimdReduceAdd            0                       # Class of committed instruction (Count)
board.processor.switch.core.commit.committedInstType_0::SimdReduceAlu            0                       # Class of committed instruction (Count)
board.processor.switch.core.commit.committedInstType_0::SimdReduceCmp            0                       # Class of committed instruction (Count)
board.processor.switch.core.commit.committedInstType_0::SimdFloatReduceAdd            0                       # Class of committed instruction (Count)
board.processor.switch.core.commit.committedInstType_0::SimdFloatReduceCmp            0                       # Class of committed instruction (Count)
board.processor.switch.core.commit.committedInstType_0::SimdAes            0                       # Class of committed instruction (Count)
board.processor.switch.core.commit.committedInstType_0::SimdAesMix            0                       # Class of committed instruction (Count)
board.processor.switch.core.commit.committedInstType_0::SimdSha1Hash            0                       # Class of committed instruction (Count)
board.processor.switch.core.commit.committedInstType_0::SimdSha1Hash2            0                       # Class of committed instruction (Count)
board.processor.switch.core.commit.committedInstType_0::SimdSha256Hash            0                       # Class of committed instruction (Count)
board.processor.switch.core.commit.committedInstType_0::SimdSha256Hash2            0                       # Class of committed instruction (Count)
board.processor.switch.core.commit.committedInstType_0::SimdShaSigma2            0                       # Class of committed instruction (Count)
board.processor.switch.core.commit.committedInstType_0::SimdShaSigma3            0                       # Class of committed instruction (Count)
board.processor.switch.core.commit.committedInstType_0::SimdPredAlu            0                       # Class of committed instruction (Count)
board.processor.switch.core.commit.committedInstType_0::MemRead            0                       # Class of committed instruction (Count)
board.processor.switch.core.commit.committedInstType_0::MemWrite            0                       # Class of committed instruction (Count)
board.processor.switch.core.commit.committedInstType_0::FloatMemRead            0                       # Class of committed instruction (Count)
board.processor.switch.core.commit.committedInstType_0::FloatMemWrite            0                       # Class of committed instruction (Count)
board.processor.switch.core.commit.committedInstType_0::IprAccess            0                       # Class of committed instruction (Count)
board.processor.switch.core.commit.committedInstType_0::InstPrefetch            0                       # Class of committed instruction (Count)
board.processor.switch.core.commit.committedInstType_0::total            0                       # Class of committed instruction (Count)
board.processor.switch.core.commit.commitEligibleSamples            0                       # number cycles where commit BW limit reached (Cycle)
board.processor.switch.core.fetch.nisnDist::samples            0                       # Number of instructions fetched each cycle (Total) (Count)
board.processor.switch.core.fetch.nisnDist::mean          nan                       # Number of instructions fetched each cycle (Total) (Count)
board.processor.switch.core.fetch.nisnDist::stdev          nan                       # Number of instructions fetched each cycle (Total) (Count)
board.processor.switch.core.fetch.nisnDist::underflows            0                       # Number of instructions fetched each cycle (Total) (Count)
board.processor.switch.core.fetch.nisnDist::0            0                       # Number of instructions fetched each cycle (Total) (Count)
board.processor.switch.core.fetch.nisnDist::1            0                       # Number of instructions fetched each cycle (Total) (Count)
board.processor.switch.core.fetch.nisnDist::2            0                       # Number of instructions fetched each cycle (Total) (Count)
board.processor.switch.core.fetch.nisnDist::3            0                       # Number of instructions fetched each cycle (Total) (Count)
board.processor.switch.core.fetch.nisnDist::4            0                       # Number of instructions fetched each cycle (Total) (Count)
board.processor.switch.core.fetch.nisnDist::5            0                       # Number of instructions fetched each cycle (Total) (Count)
board.processor.switch.core.fetch.nisnDist::6            0                       # Number of instructions fetched each cycle (Total) (Count)
board.processor.switch.core.fetch.nisnDist::7            0                       # Number of instructions fetched each cycle (Total) (Count)
board.processor.switch.core.fetch.nisnDist::8            0                       # Number of instructions fetched each cycle (Total) (Count)
board.processor.switch.core.fetch.nisnDist::overflows            0                       # Number of instructions fetched each cycle (Total) (Count)
board.processor.switch.core.fetch.nisnDist::min_value            0                       # Number of instructions fetched each cycle (Total) (Count)
board.processor.switch.core.fetch.nisnDist::max_value            0                       # Number of instructions fetched each cycle (Total) (Count)
board.processor.switch.core.fetch.nisnDist::total            0                       # Number of instructions fetched each cycle (Total) (Count)
board.processor.switch.core.fetch.idleRate          nan                       # Ratio of cycles fetch was idle (Ratio)
board.processor.switch.core.fetch.branchRate          nan                       # Number of branch fetches per cycle (Ratio)
board.processor.switch.core.fetch.rate            nan                       # Number of inst fetches per cycle ((Count/Cycle))
board.processor.switch.core.iew.idleCycles            0                       # Number of cycles IEW is idle (Cycle)
board.processor.switch.core.iew.squashCycles            0                       # Number of cycles IEW is squashing (Cycle)
board.processor.switch.core.iew.blockCycles            0                       # Number of cycles IEW is blocking (Cycle)
board.processor.switch.core.iew.unblockCycles            0                       # Number of cycles IEW is unblocking (Cycle)
board.processor.switch.core.iew.dispatchedInsts            0                       # Number of instructions dispatched to IQ (Count)
board.processor.switch.core.iew.dispSquashedInsts            0                       # Number of squashed instructions skipped by dispatch (Count)
board.processor.switch.core.iew.dispLoadInsts            0                       # Number of dispatched load instructions (Count)
board.processor.switch.core.iew.dispStoreInsts            0                       # Number of dispatched store instructions (Count)
board.processor.switch.core.iew.dispNonSpecInsts            0                       # Number of dispatched non-speculative instructions (Count)
board.processor.switch.core.iew.iqFullEvents            0                       # Number of times the IQ has become full, causing a stall (Count)
board.processor.switch.core.iew.lsqFullEvents            0                       # Number of times the LSQ has become full, causing a stall (Count)
board.processor.switch.core.iew.memOrderViolationEvents            0                       # Number of memory order violations (Count)
board.processor.switch.core.iew.predictedTakenIncorrect            0                       # Number of branches that were predicted taken incorrectly (Count)
board.processor.switch.core.iew.predictedNotTakenIncorrect            0                       # Number of branches that were predicted not taken incorrectly (Count)
board.processor.switch.core.iew.branchMispredicts            0                       # Number of branch mispredicts detected at execute (Count)
board.processor.switch.core.iew.instsToCommit            0                       # Cumulative count of insts sent to commit (Count)
board.processor.switch.core.iew.writebackCount            0                       # Cumulative count of insts written-back (Count)
board.processor.switch.core.iew.producerInst            0                       # Number of instructions producing a value (Count)
board.processor.switch.core.iew.consumerInst            0                       # Number of instructions consuming a value (Count)
board.processor.switch.core.iew.wbRate            nan                       # Insts written-back per cycle ((Count/Cycle))
board.processor.switch.core.iew.wbFanout          nan                       # Average fanout of values written-back ((Count/Count))
board.processor.switch.core.lsq0.forwLoads            0                       # Number of loads that had data forwarded from stores (Count)
board.processor.switch.core.lsq0.squashedLoads            0                       # Number of loads squashed (Count)
board.processor.switch.core.lsq0.ignoredResponses            0                       # Number of memory responses ignored because the instruction is squashed (Count)
board.processor.switch.core.lsq0.memOrderViolation            0                       # Number of memory ordering violations (Count)
board.processor.switch.core.lsq0.squashedStores            0                       # Number of stores squashed (Count)
board.processor.switch.core.lsq0.rescheduledLoads            0                       # Number of loads that were rescheduled (Count)
board.processor.switch.core.lsq0.blockedByCache            0                       # Number of times an access to memory failed due to the cache being blocked (Count)
board.processor.switch.core.mmu.dtb.readHits            0                       # read hits (Count)
board.processor.switch.core.mmu.dtb.readMisses            0                       # read misses (Count)
board.processor.switch.core.mmu.dtb.readAccesses            0                       # read accesses (Count)
board.processor.switch.core.mmu.dtb.writeHits            0                       # write hits (Count)
board.processor.switch.core.mmu.dtb.writeMisses            0                       # write misses (Count)
board.processor.switch.core.mmu.dtb.writeAccesses            0                       # write accesses (Count)
board.processor.switch.core.mmu.dtb.hits            0                       # Total TLB (read and write) hits (Count)
board.processor.switch.core.mmu.dtb.misses            0                       # Total TLB (read and write) misses (Count)
board.processor.switch.core.mmu.dtb.accesses            0                       # Total TLB (read and write) accesses (Count)
board.processor.switch.core.mmu.dtb.walker.power_state.pwrStateResidencyTicks::UNDEFINED 6135990151384                       # Cumulative time (in ticks) in various power states (Tick)
board.processor.switch.core.mmu.itb.readHits            0                       # read hits (Count)
board.processor.switch.core.mmu.itb.readMisses            0                       # read misses (Count)
board.processor.switch.core.mmu.itb.readAccesses            0                       # read accesses (Count)
board.processor.switch.core.mmu.itb.writeHits            0                       # write hits (Count)
board.processor.switch.core.mmu.itb.writeMisses            0                       # write misses (Count)
board.processor.switch.core.mmu.itb.writeAccesses            0                       # write accesses (Count)
board.processor.switch.core.mmu.itb.hits            0                       # Total TLB (read and write) hits (Count)
board.processor.switch.core.mmu.itb.misses            0                       # Total TLB (read and write) misses (Count)
board.processor.switch.core.mmu.itb.accesses            0                       # Total TLB (read and write) accesses (Count)
board.processor.switch.core.mmu.itb.walker.power_state.pwrStateResidencyTicks::UNDEFINED 6135990151384                       # Cumulative time (in ticks) in various power states (Tick)
board.processor.switch.core.power_state.pwrStateResidencyTicks::OFF 6135990151384                       # Cumulative time (in ticks) in various power states (Tick)
board.processor.switch.core.rename.serializeStallCycles            0                       # count of cycles rename stalled for serializing inst (Cycle)
board.processor.switch.core.rename.serializing            0                       # count of serializing insts renamed (Count)
board.processor.switch.core.rename.tempSerializing            0                       # count of temporary serializing insts renamed (Count)
board.processor.switch.core.rename.skidInsts            0                       # count of insts added to the skid buffer (Count)
board.processor.switch.core.rob.reads               0                       # The number of ROB reads (Count)
board.processor.switch.core.rob.writes              0                       # The number of ROB writes (Count)
board.processor.switch.core.thread_0.numInsts            0                       # Number of Instructions committed (Count)
board.processor.switch.core.thread_0.numOps            0                       # Number of Ops committed (Count)
board.processor.switch.core.thread_0.numMemRefs            0                       # Number of Memory References (Count)
board.rng.power_state.pwrStateResidencyTicks::UNDEFINED 6135990151384                       # Cumulative time (in ticks) in various power states (Tick)
board.workload.inst.arm                             0                       # number of arm instructions executed (Count)
board.workload.inst.quiesce                         7                       # number of quiesce instructions executed (Count)

---------- End Simulation Statistics   ----------
