Global frequency set at 1000000000000 ticks per second
build/RISCV/mem/dram_interface.cc:690: warn: DRAM device capacity (16384 Mbytes) does not match the address range assigned (2048 Mbytes)
build/RISCV/mem/dram_interface.cc:690: warn: DRAM device capacity (16384 Mbytes) does not match the address range assigned (2048 Mbytes)
build/RISCV/sim/kernel_workload.cc:46: info: kernel located at: /home/studyztp/.cache/gem5/riscv-bootloader-vmlinux-5.10
      0: board.platform.rtc: Real-time clock set to Sun Jan  1 00:00:00 2012
build/RISCV/dev/serial/terminal.cc:170: warn: Sockets disabled, not accepting terminal connections
build/RISCV/base/remote_gdb.cc:381: warn: Sockets disabled, not accepting gdb connections
build/RISCV/arch/riscv/linux/fs_workload.cc:50: info: Loading DTB file: riscv-spec2006-fullrun-bzip2-test-atomic-only-output/device.dtb at address 0x87e00000
gem5 Simulator System.  https://www.gem5.org
gem5 is copyrighted software; use the --copyright option for details.

gem5 version [DEVELOP-FOR-22.1]
gem5 compiled Aug 26 2022 20:07:20
gem5 started Aug 28 2022 17:19:20
gem5 executing on amarillo, pid 279351
command line: build/RISCV/gem5.opt --outdir=riscv-spec2006-fullrun-bzip2-test-atomic-only-output/ /home/studyztp/data/SPEC2006-riscv-test/script/fs_fullrun_atomic_only.py --benchmark 401.bzip2 --size test

info: Standard input is not a terminal, disabling listeners.
warn: The simulate package is still in a beta state. The gem5 project does not guarantee the APIs within this package will remain consistent across upcoming releases.
build/RISCV/sim/simulate.cc:194: info: Entering event queue @ 0.  Starting simulation...
build/RISCV/dev/riscv/vio_mmio.cc:216: warn: Ignoring queue resize hint. Requested size: 128
build/RISCV/arch/riscv/isa.cc:572: warn: 84278519784: context 0: 10000 consecutive SC failures.
build/RISCV/arch/riscv/isa.cc:572: warn: 117487150578: context 0: 20000 consecutive SC failures.
build/RISCV/arch/riscv/isa.cc:572: warn: 223564476069: context 0: 30000 consecutive SC failures.
build/RISCV/arch/riscv/isa.cc:572: warn: 274694215482: context 0: 40000 consecutive SC failures.
build/RISCV/arch/riscv/isa.cc:572: warn: 313321239126: context 0: 50000 consecutive SC failures.
build/RISCV/arch/riscv/isa.cc:572: warn: 344923708689: context 0: 60000 consecutive SC failures.
build/RISCV/arch/riscv/isa.cc:572: warn: 379495234890: context 0: 70000 consecutive SC failures.
build/RISCV/arch/riscv/isa.cc:572: warn: 415667427489: context 0: 80000 consecutive SC failures.
build/RISCV/arch/riscv/isa.cc:572: warn: 444182943096: context 0: 90000 consecutive SC failures.
build/RISCV/arch/riscv/isa.cc:572: warn: 484117827237: context 0: 100000 consecutive SC failures.
build/RISCV/arch/riscv/isa.cc:572: warn: 551652941520: context 0: 110000 consecutive SC failures.
build/RISCV/dev/virtio/block.cc:158: warn: Unsupported IO request: 8
build/RISCV/arch/riscv/isa.cc:572: warn: 590924243241: context 0: 120000 consecutive SC failures.
build/RISCV/arch/riscv/isa.cc:572: warn: 643206761055: context 0: 130000 consecutive SC failures.
build/RISCV/dev/virtio/block.cc:158: warn: Unsupported IO request: 8
build/RISCV/dev/virtio/block.cc:158: warn: Unsupported IO request: 8
build/RISCV/dev/virtio/block.cc:158: warn: Unsupported IO request: 8
build/RISCV/dev/virtio/block.cc:158: warn: Unsupported IO request: 8
build/RISCV/dev/virtio/block.cc:158: warn: Unsupported IO request: 8
build/RISCV/arch/riscv/isa.cc:572: warn: 691004217753: context 0: 140000 consecutive SC failures.
build/RISCV/arch/riscv/isa.cc:572: warn: 749057361831: context 0: 150000 consecutive SC failures.
build/RISCV/arch/riscv/isa.cc:572: warn: 812756313783: context 0: 160000 consecutive SC failures.
build/RISCV/arch/riscv/isa.cc:572: warn: 876113062614: context 0: 170000 consecutive SC failures.
build/RISCV/arch/riscv/isa.cc:572: warn: 940862848680: context 0: 180000 consecutive SC failures.
build/RISCV/arch/riscv/isa.cc:572: warn: 1003945729653: context 0: 190000 consecutive SC failures.
build/RISCV/arch/riscv/isa.cc:572: warn: 1045273712967: context 0: 200000 consecutive SC failures.
build/RISCV/arch/riscv/isa.cc:572: warn: 1202008661793: context 0: 210000 consecutive SC failures.
build/RISCV/arch/riscv/isa.cc:572: warn: 1492287955596: context 0: 220000 consecutive SC failures.
build/RISCV/dev/virtio/block.cc:158: warn: Unsupported IO request: 8
build/RISCV/arch/riscv/isa.cc:572: warn: 1540228483413: context 0: 230000 consecutive SC failures.
build/RISCV/arch/riscv/isa.cc:572: warn: 1567060698339: context 0: 240000 consecutive SC failures.
build/RISCV/arch/riscv/isa.cc:572: warn: 1670888555550: context 0: 250000 consecutive SC failures.
build/RISCV/arch/riscv/isa.cc:572: warn: 1725070260276: context 0: 260000 consecutive SC failures.
build/RISCV/arch/riscv/isa.cc:572: warn: 1785302067510: context 0: 270000 consecutive SC failures.
build/RISCV/arch/riscv/isa.cc:572: warn: 1847986968528: context 0: 280000 consecutive SC failures.
build/RISCV/arch/riscv/isa.cc:572: warn: 1911400884801: context 0: 290000 consecutive SC failures.
build/RISCV/arch/riscv/isa.cc:572: warn: 2004504431391: context 0: 300000 consecutive SC failures.
build/RISCV/arch/riscv/isa.cc:572: warn: 2194992322488: context 0: 310000 consecutive SC failures.
build/RISCV/arch/riscv/isa.cc:572: warn: 2240240942574: context 0: 320000 consecutive SC failures.
build/RISCV/arch/riscv/isa.cc:572: warn: 2298705119208: context 0: 330000 consecutive SC failures.
build/RISCV/arch/riscv/isa.cc:572: warn: 2778410570238: context 0: 340000 consecutive SC failures.
build/RISCV/arch/riscv/isa.cc:572: warn: 3024521970813: context 0: 350000 consecutive SC failures.
build/RISCV/arch/riscv/isa.cc:572: warn: 3667974054966: context 0: 360000 consecutive SC failures.
build/RISCV/arch/riscv/isa.cc:572: warn: 3710890369026: context 0: 370000 consecutive SC failures.
build/RISCV/arch/riscv/isa.cc:572: warn: 3770249903073: context 0: 380000 consecutive SC failures.
build/RISCV/arch/riscv/isa.cc:572: warn: 3895033930137: context 0: 390000 consecutive SC failures.
build/RISCV/arch/riscv/isa.cc:572: warn: 3934384670673: context 0: 400000 consecutive SC failures.
build/RISCV/arch/riscv/isa.cc:572: warn: 4251065421258: context 0: 410000 consecutive SC failures.
build/RISCV/arch/riscv/isa.cc:572: warn: 4304580487290: context 0: 420000 consecutive SC failures.
build/RISCV/arch/riscv/isa.cc:572: warn: 4333044666951: context 0: 430000 consecutive SC failures.
build/RISCV/arch/riscv/isa.cc:572: warn: 4371432545979: context 0: 440000 consecutive SC failures.
build/RISCV/arch/riscv/isa.cc:572: warn: 4392035690544: context 0: 450000 consecutive SC failures.
build/RISCV/arch/riscv/isa.cc:572: warn: 5582452152807: context 0: 460000 consecutive SC failures.
build/RISCV/arch/riscv/isa.cc:572: warn: 5939665484904: context 0: 470000 consecutive SC failures.
build/RISCV/sim/simulate.cc:194: info: Entering event queue @ 6061696935300.  Starting simulation...
build/RISCV/arch/riscv/isa.cc:572: warn: 6069536218503: context 0: 480000 consecutive SC failures.
build/RISCV/sim/simulate.cc:194: info: Entering event queue @ 6070264191801.  Starting simulation...
build/RISCV/arch/riscv/isa.cc:572: warn: 7015359769848: context 0: 490000 consecutive SC failures.
build/RISCV/arch/riscv/isa.cc:572: warn: 7679058713874: context 0: 500000 consecutive SC failures.
build/RISCV/arch/riscv/isa.cc:572: warn: 9590277436686: context 0: 510000 consecutive SC failures.
build/RISCV/arch/riscv/isa.cc:572: warn: 11144116710018: context 0: 520000 consecutive SC failures.
build/RISCV/arch/riscv/isa.cc:572: warn: 11968896967821: context 0: 530000 consecutive SC failures.
build/RISCV/arch/riscv/isa.cc:572: warn: 12549093467211: context 0: 540000 consecutive SC failures.
build/RISCV/arch/riscv/isa.cc:572: warn: 12894806868417: context 0: 550000 consecutive SC failures.
build/RISCV/arch/riscv/isa.cc:572: warn: 13531721836563: context 0: 560000 consecutive SC failures.
build/RISCV/arch/riscv/isa.cc:572: warn: 13564175892354: context 0: 570000 consecutive SC failures.
build/RISCV/arch/riscv/isa.cc:572: warn: 24699312809487: context 0: 580000 consecutive SC failures.
build/RISCV/arch/riscv/isa.cc:572: warn: 31372261946721: context 0: 590000 consecutive SC failures.
build/RISCV/arch/riscv/isa.cc:572: warn: 51958706797485: context 0: 600000 consecutive SC failures.
build/RISCV/arch/riscv/isa.cc:572: warn: 69325126300179: context 0: 610000 consecutive SC failures.
build/RISCV/arch/riscv/isa.cc:572: warn: 69532255278198: context 0: 620000 consecutive SC failures.
build/RISCV/arch/riscv/isa.cc:572: warn: 72116146729602: context 0: 630000 consecutive SC failures.
build/RISCV/arch/riscv/isa.cc:572: warn: 72626182378074: context 0: 640000 consecutive SC failures.
build/RISCV/sim/simulate.cc:194: info: Entering event queue @ 72662742745776.  Starting simulation...
build/RISCV/sim/simulate.cc:194: info: Entering event queue @ 72663122578230.  Starting simulation...
build/RISCV/arch/riscv/isa.cc:572: warn: 72684200508201: context 0: 650000 consecutive SC failures.
build/RISCV/sim/simulate.cc:194: info: Entering event queue @ 72705847312062.  Starting simulation...
build/RISCV/sim/simulate.cc:194: info: Entering event queue @ 72706238075241.  Starting simulation...
build/RISCV/arch/riscv/isa.cc:572: warn: 72707444778663: context 0: 660000 consecutive SC failures.
build/RISCV/arch/riscv/isa.cc:572: warn: 72716571196443: context 0: 670000 consecutive SC failures.
build/RISCV/arch/riscv/isa.cc:572: warn: 72728364757077: context 0: 680000 consecutive SC failures.
build/RISCV/arch/riscv/isa.cc:572: warn: 72746495215803: context 0: 690000 consecutive SC failures.
build/RISCV/arch/riscv/isa.cc:572: warn: 72764622616923: context 0: 700000 consecutive SC failures.
build/RISCV/arch/riscv/isa.cc:572: warn: 72782751038022: context 0: 710000 consecutive SC failures.
build/RISCV/arch/riscv/isa.cc:572: warn: 72800883912330: context 0: 720000 consecutive SC failures.
build/RISCV/arch/riscv/isa.cc:572: warn: 72819018640782: context 0: 730000 consecutive SC failures.
build/RISCV/arch/riscv/isa.cc:572: warn: 72837158155776: context 0: 740000 consecutive SC failures.
build/RISCV/arch/riscv/isa.cc:572: warn: 72855300276495: context 0: 750000 consecutive SC failures.
build/RISCV/arch/riscv/isa.cc:572: warn: 72873448120485: context 0: 760000 consecutive SC failures.
build/RISCV/arch/riscv/isa.cc:572: warn: 72891591884559: context 0: 770000 consecutive SC failures.
build/RISCV/arch/riscv/isa.cc:572: warn: 72909739238040: context 0: 780000 consecutive SC failures.
build/RISCV/arch/riscv/isa.cc:572: warn: 72927886514598: context 0: 790000 consecutive SC failures.
build/RISCV/arch/riscv/isa.cc:572: warn: 72946033740540: context 0: 800000 consecutive SC failures.
build/RISCV/arch/riscv/isa.cc:572: warn: 72964179845937: context 0: 810000 consecutive SC failures.
build/RISCV/arch/riscv/isa.cc:572: warn: 72982328385231: context 0: 820000 consecutive SC failures.
build/RISCV/arch/riscv/isa.cc:572: warn: 73000476559224: context 0: 830000 consecutive SC failures.
build/RISCV/arch/riscv/isa.cc:572: warn: 73018623761856: context 0: 840000 consecutive SC failures.
build/RISCV/arch/riscv/isa.cc:572: warn: 73036771163622: context 0: 850000 consecutive SC failures.
build/RISCV/arch/riscv/isa.cc:572: warn: 73054919385900: context 0: 860000 consecutive SC failures.
build/RISCV/arch/riscv/isa.cc:572: warn: 73073067895224: context 0: 870000 consecutive SC failures.
build/RISCV/arch/riscv/isa.cc:572: warn: 73091215085202: context 0: 880000 consecutive SC failures.
build/RISCV/arch/riscv/isa.cc:572: warn: 73109363683437: context 0: 890000 consecutive SC failures.
build/RISCV/arch/riscv/isa.cc:572: warn: 73127511950337: context 0: 900000 consecutive SC failures.
build/RISCV/arch/riscv/isa.cc:572: warn: 73145660430024: context 0: 910000 consecutive SC failures.
build/RISCV/arch/riscv/isa.cc:572: warn: 73163807808813: context 0: 920000 consecutive SC failures.
build/RISCV/arch/riscv/isa.cc:572: warn: 73181956253202: context 0: 930000 consecutive SC failures.
build/RISCV/arch/riscv/isa.cc:572: warn: 73200104519436: context 0: 940000 consecutive SC failures.
build/RISCV/arch/riscv/isa.cc:572: warn: 73218253059396: context 0: 950000 consecutive SC failures.
build/RISCV/arch/riscv/isa.cc:572: warn: 73236400268688: context 0: 960000 consecutive SC failures.
build/RISCV/arch/riscv/isa.cc:572: warn: 73254548489301: context 0: 970000 consecutive SC failures.
build/RISCV/arch/riscv/isa.cc:572: warn: 73272697043247: context 0: 980000 consecutive SC failures.
build/RISCV/arch/riscv/isa.cc:572: warn: 73290844196595: context 0: 990000 consecutive SC failures.
build/RISCV/arch/riscv/isa.cc:572: warn: 73308994710246: context 0: 1000000 consecutive SC failures.
build/RISCV/arch/riscv/isa.cc:572: warn: 73327142890566: context 0: 1010000 consecutive SC failures.
build/RISCV/arch/riscv/isa.cc:572: warn: 73345291471152: context 0: 1020000 consecutive SC failures.
build/RISCV/arch/riscv/isa.cc:572: warn: 73363438667790: context 0: 1030000 consecutive SC failures.
build/RISCV/arch/riscv/isa.cc:572: warn: 73381587081876: context 0: 1040000 consecutive SC failures.
build/RISCV/arch/riscv/isa.cc:572: warn: 73399735408716: context 0: 1050000 consecutive SC failures.
build/RISCV/arch/riscv/isa.cc:572: warn: 73417883878080: context 0: 1060000 consecutive SC failures.
build/RISCV/arch/riscv/isa.cc:572: warn: 73436031069723: context 0: 1070000 consecutive SC failures.
build/RISCV/arch/riscv/isa.cc:572: warn: 73454179646313: context 0: 1080000 consecutive SC failures.
build/RISCV/arch/riscv/isa.cc:572: warn: 73472327866593: context 0: 1090000 consecutive SC failures.
build/RISCV/arch/riscv/isa.cc:572: warn: 73490476334958: context 0: 1100000 consecutive SC failures.
build/RISCV/arch/riscv/isa.cc:572: warn: 73508623655139: context 0: 1110000 consecutive SC failures.
build/RISCV/arch/riscv/isa.cc:572: warn: 73526771909052: context 0: 1120000 consecutive SC failures.
build/RISCV/arch/riscv/isa.cc:572: warn: 73544920355439: context 0: 1130000 consecutive SC failures.
build/RISCV/arch/riscv/isa.cc:572: warn: 73563067564731: context 0: 1140000 consecutive SC failures.
build/RISCV/arch/riscv/isa.cc:572: warn: 73581216178617: context 0: 1150000 consecutive SC failures.
build/RISCV/arch/riscv/isa.cc:572: warn: 73599364333296: context 0: 1160000 consecutive SC failures.
build/RISCV/arch/riscv/isa.cc:572: warn: 73617512817978: context 0: 1170000 consecutive SC failures.
build/RISCV/arch/riscv/isa.cc:572: warn: 73635660108522: context 0: 1180000 consecutive SC failures.
build/RISCV/arch/riscv/isa.cc:572: warn: 73653808488309: context 0: 1190000 consecutive SC failures.
build/RISCV/arch/riscv/isa.cc:572: warn: 73671956744220: context 0: 1200000 consecutive SC failures.
build/RISCV/arch/riscv/isa.cc:572: warn: 73690105246551: context 0: 1210000 consecutive SC failures.
build/RISCV/arch/riscv/isa.cc:572: warn: 73708252509789: context 0: 1220000 consecutive SC failures.
build/RISCV/arch/riscv/isa.cc:572: warn: 73726400984148: context 0: 1230000 consecutive SC failures.
build/RISCV/arch/riscv/isa.cc:572: warn: 73744549317648: context 0: 1240000 consecutive SC failures.
build/RISCV/arch/riscv/isa.cc:572: warn: 73762696575225: context 0: 1250000 consecutive SC failures.
build/RISCV/arch/riscv/isa.cc:572: warn: 73780845007959: context 0: 1260000 consecutive SC failures.
build/RISCV/arch/riscv/isa.cc:572: warn: 73798993329471: context 0: 1270000 consecutive SC failures.
build/RISCV/arch/riscv/isa.cc:572: warn: 73817141850450: context 0: 1280000 consecutive SC failures.
build/RISCV/arch/riscv/isa.cc:572: warn: 73835290973493: context 0: 1290000 consecutive SC failures.
build/RISCV/arch/riscv/isa.cc:572: warn: 73853442401562: context 0: 1300000 consecutive SC failures.
build/RISCV/arch/riscv/isa.cc:572: warn: 73871590692771: context 0: 1310000 consecutive SC failures.
build/RISCV/arch/riscv/isa.cc:572: warn: 73889739184779: context 0: 1320000 consecutive SC failures.
build/RISCV/arch/riscv/isa.cc:572: warn: 73907886359439: context 0: 1330000 consecutive SC failures.
build/RISCV/arch/riscv/isa.cc:572: warn: 73926034995969: context 0: 1340000 consecutive SC failures.
build/RISCV/arch/riscv/isa.cc:572: warn: 73944183210588: context 0: 1350000 consecutive SC failures.
build/RISCV/arch/riscv/isa.cc:572: warn: 73962331625340: context 0: 1360000 consecutive SC failures.
build/RISCV/arch/riscv/isa.cc:572: warn: 73980478959840: context 0: 1370000 consecutive SC failures.
build/RISCV/arch/riscv/isa.cc:572: warn: 73998627164469: context 0: 1380000 consecutive SC failures.
build/RISCV/arch/riscv/isa.cc:572: warn: 74016775671795: context 0: 1390000 consecutive SC failures.
build/RISCV/arch/riscv/isa.cc:572: warn: 74034922822146: context 0: 1400000 consecutive SC failures.
build/RISCV/arch/riscv/isa.cc:572: warn: 74053069714422: context 0: 1410000 consecutive SC failures.
build/RISCV/arch/riscv/isa.cc:572: warn: 74071216871433: context 0: 1420000 consecutive SC failures.
build/RISCV/arch/riscv/isa.cc:572: warn: 74089365395076: context 0: 1430000 consecutive SC failures.
build/RISCV/arch/riscv/isa.cc:572: warn: 74107513714923: context 0: 1440000 consecutive SC failures.
build/RISCV/arch/riscv/isa.cc:572: warn: 74125662122349: context 0: 1450000 consecutive SC failures.
build/RISCV/arch/riscv/isa.cc:572: warn: 74143809378927: context 0: 1460000 consecutive SC failures.
build/RISCV/arch/riscv/isa.cc:572: warn: 74161957924548: context 0: 1470000 consecutive SC failures.
build/RISCV/arch/riscv/isa.cc:572: warn: 74180106130842: context 0: 1480000 consecutive SC failures.
build/RISCV/arch/riscv/isa.cc:572: warn: 74198254568238: context 0: 1490000 consecutive SC failures.
build/RISCV/arch/riscv/isa.cc:572: warn: 74216401907733: context 0: 1500000 consecutive SC failures.
build/RISCV/arch/riscv/isa.cc:572: warn: 74234550113361: context 0: 1510000 consecutive SC failures.
build/RISCV/arch/riscv/isa.cc:572: warn: 74252698549092: context 0: 1520000 consecutive SC failures.
build/RISCV/arch/riscv/isa.cc:572: warn: 74270845760715: context 0: 1530000 consecutive SC failures.
build/RISCV/arch/riscv/isa.cc:572: warn: 74288994288354: context 0: 1540000 consecutive SC failures.
build/RISCV/arch/riscv/isa.cc:572: warn: 74307142554588: context 0: 1550000 consecutive SC failures.
build/RISCV/arch/riscv/isa.cc:572: warn: 74325290988321: context 0: 1560000 consecutive SC failures.
build/RISCV/arch/riscv/isa.cc:572: warn: 74343439905237: context 0: 1570000 consecutive SC failures.
build/RISCV/arch/riscv/isa.cc:572: warn: 74361588380928: context 0: 1580000 consecutive SC failures.
build/RISCV/arch/riscv/isa.cc:572: warn: 74379736567242: context 0: 1590000 consecutive SC failures.
build/RISCV/arch/riscv/isa.cc:572: warn: 74397885080895: context 0: 1600000 consecutive SC failures.
build/RISCV/arch/riscv/isa.cc:572: warn: 74416032282195: context 0: 1610000 consecutive SC failures.
build/RISCV/arch/riscv/isa.cc:572: warn: 74434180736241: context 0: 1620000 consecutive SC failures.
build/RISCV/arch/riscv/isa.cc:572: warn: 74452329030780: context 0: 1630000 consecutive SC failures.
build/RISCV/arch/riscv/isa.cc:572: warn: 74470477438206: context 0: 1640000 consecutive SC failures.
build/RISCV/arch/riscv/isa.cc:572: warn: 74488624697448: context 0: 1650000 consecutive SC failures.
build/RISCV/arch/riscv/isa.cc:572: warn: 74506772832813: context 0: 1660000 consecutive SC failures.
build/RISCV/arch/riscv/isa.cc:572: warn: 74524921410402: context 0: 1670000 consecutive SC failures.
build/RISCV/arch/riscv/isa.cc:572: warn: 74543068560753: context 0: 1680000 consecutive SC failures.
build/RISCV/arch/riscv/isa.cc:572: warn: 74561217007140: context 0: 1690000 consecutive SC failures.
build/RISCV/arch/riscv/isa.cc:572: warn: 74579365354959: context 0: 1700000 consecutive SC failures.
build/RISCV/arch/riscv/isa.cc:572: warn: 74597513815332: context 0: 1710000 consecutive SC failures.
build/RISCV/arch/riscv/isa.cc:572: warn: 74615661024624: context 0: 1720000 consecutive SC failures.
build/RISCV/arch/riscv/isa.cc:572: warn: 74633809617531: context 0: 1730000 consecutive SC failures.
build/RISCV/arch/riscv/isa.cc:572: warn: 74651957833482: context 0: 1740000 consecutive SC failures.
build/RISCV/arch/riscv/isa.cc:572: warn: 74670106280535: context 0: 1750000 consecutive SC failures.
build/RISCV/arch/riscv/isa.cc:572: warn: 74688253656327: context 0: 1760000 consecutive SC failures.
build/RISCV/arch/riscv/isa.cc:572: warn: 74706402069414: context 0: 1770000 consecutive SC failures.
build/RISCV/arch/riscv/isa.cc:572: warn: 74724550365951: context 0: 1780000 consecutive SC failures.
build/RISCV/arch/riscv/isa.cc:572: warn: 74742697480338: context 0: 1790000 consecutive SC failures.
build/RISCV/arch/riscv/isa.cc:572: warn: 74760846117867: context 0: 1800000 consecutive SC failures.
build/RISCV/arch/riscv/isa.cc:572: warn: 74778994320498: context 0: 1810000 consecutive SC failures.
build/RISCV/arch/riscv/isa.cc:572: warn: 74797142793192: context 0: 1820000 consecutive SC failures.
build/RISCV/arch/riscv/isa.cc:572: warn: 74815290138348: context 0: 1830000 consecutive SC failures.
build/RISCV/arch/riscv/isa.cc:572: warn: 74833438543443: context 0: 1840000 consecutive SC failures.
build/RISCV/arch/riscv/isa.cc:572: warn: 74851588724760: context 0: 1850000 consecutive SC failures.
build/RISCV/arch/riscv/isa.cc:572: warn: 74869737244074: context 0: 1860000 consecutive SC failures.
build/RISCV/arch/riscv/isa.cc:572: warn: 74887886114037: context 0: 1870000 consecutive SC failures.
build/RISCV/arch/riscv/isa.cc:572: warn: 74906034609375: context 0: 1880000 consecutive SC failures.
build/RISCV/arch/riscv/isa.cc:572: warn: 74924182955862: context 0: 1890000 consecutive SC failures.
build/RISCV/arch/riscv/isa.cc:572: warn: 74942331459525: context 0: 1900000 consecutive SC failures.
build/RISCV/arch/riscv/isa.cc:572: warn: 74960478646839: context 0: 1910000 consecutive SC failures.
build/RISCV/arch/riscv/isa.cc:572: warn: 74978626899087: context 0: 1920000 consecutive SC failures.
build/RISCV/arch/riscv/isa.cc:572: warn: 74996775382770: context 0: 1930000 consecutive SC failures.
build/RISCV/arch/riscv/isa.cc:572: warn: 75015225266085: context 0: 1940000 consecutive SC failures.
build/RISCV/arch/riscv/isa.cc:572: warn: 75033372363156: context 0: 1950000 consecutive SC failures.
build/RISCV/arch/riscv/isa.cc:572: warn: 75051519556131: context 0: 1960000 consecutive SC failures.
build/RISCV/arch/riscv/isa.cc:572: warn: 75069668071449: context 0: 1970000 consecutive SC failures.
build/RISCV/arch/riscv/isa.cc:572: warn: 75121359333444: context 0: 1980000 consecutive SC failures.
build/RISCV/arch/riscv/isa.cc:572: warn: 75133947264912: context 0: 1990000 consecutive SC failures.
build/RISCV/arch/riscv/isa.cc:572: warn: 75152079227133: context 0: 2000000 consecutive SC failures.
build/RISCV/arch/riscv/isa.cc:572: warn: 75170207819394: context 0: 2010000 consecutive SC failures.
build/RISCV/arch/riscv/isa.cc:572: warn: 75188337369696: context 0: 2020000 consecutive SC failures.
build/RISCV/arch/riscv/isa.cc:572: warn: 75206472070176: context 0: 2030000 consecutive SC failures.
build/RISCV/arch/riscv/isa.cc:572: warn: 75224611692063: context 0: 2040000 consecutive SC failures.
build/RISCV/arch/riscv/isa.cc:572: warn: 75242752724538: context 0: 2050000 consecutive SC failures.
build/RISCV/arch/riscv/isa.cc:572: warn: 75260896684416: context 0: 2060000 consecutive SC failures.
build/RISCV/arch/riscv/isa.cc:572: warn: 75279042674262: context 0: 2070000 consecutive SC failures.
build/RISCV/arch/riscv/isa.cc:572: warn: 75297188793645: context 0: 2080000 consecutive SC failures.
build/RISCV/arch/riscv/isa.cc:572: warn: 75315334964643: context 0: 2090000 consecutive SC failures.
build/RISCV/arch/riscv/isa.cc:572: warn: 75333482279496: context 0: 2100000 consecutive SC failures.
build/RISCV/arch/riscv/isa.cc:572: warn: 75351629385891: context 0: 2110000 consecutive SC failures.
build/RISCV/arch/riscv/isa.cc:572: warn: 75369779799309: context 0: 2120000 consecutive SC failures.
build/RISCV/arch/riscv/isa.cc:572: warn: 75387927132144: context 0: 2130000 consecutive SC failures.
build/RISCV/arch/riscv/isa.cc:572: warn: 75406075550559: context 0: 2140000 consecutive SC failures.
build/RISCV/arch/riscv/isa.cc:572: warn: 75424222638306: context 0: 2150000 consecutive SC failures.
build/RISCV/arch/riscv/isa.cc:572: warn: 75442371214230: context 0: 2160000 consecutive SC failures.
build/RISCV/arch/riscv/isa.cc:572: warn: 75460518400545: context 0: 2170000 consecutive SC failures.
build/RISCV/arch/riscv/isa.cc:572: warn: 75478666648131: context 0: 2180000 consecutive SC failures.
build/RISCV/arch/riscv/isa.cc:572: warn: 75496815115497: context 0: 2190000 consecutive SC failures.
build/RISCV/arch/riscv/isa.cc:572: warn: 75514964230548: context 0: 2200000 consecutive SC failures.
build/RISCV/arch/riscv/isa.cc:572: warn: 75533112729882: context 0: 2210000 consecutive SC failures.
build/RISCV/arch/riscv/isa.cc:572: warn: 75551261074038: context 0: 2220000 consecutive SC failures.
build/RISCV/arch/riscv/isa.cc:572: warn: 75569409503442: context 0: 2230000 consecutive SC failures.
build/RISCV/arch/riscv/isa.cc:572: warn: 75587556723390: context 0: 2240000 consecutive SC failures.
build/RISCV/arch/riscv/isa.cc:572: warn: 75605705182431: context 0: 2250000 consecutive SC failures.
build/RISCV/arch/riscv/isa.cc:572: warn: 75623853576537: context 0: 2260000 consecutive SC failures.
build/RISCV/arch/riscv/isa.cc:572: warn: 75642001943670: context 0: 2270000 consecutive SC failures.
build/RISCV/arch/riscv/isa.cc:572: warn: 75660149210238: context 0: 2280000 consecutive SC failures.
build/RISCV/arch/riscv/isa.cc:572: warn: 75678297730884: context 0: 2290000 consecutive SC failures.
build/RISCV/arch/riscv/isa.cc:572: warn: 75696445974141: context 0: 2300000 consecutive SC failures.
build/RISCV/arch/riscv/isa.cc:572: warn: 75714593214069: context 0: 2310000 consecutive SC failures.
build/RISCV/arch/riscv/isa.cc:572: warn: 75732741807642: context 0: 2320000 consecutive SC failures.
build/RISCV/arch/riscv/isa.cc:572: warn: 75750890057226: context 0: 2330000 consecutive SC failures.
build/RISCV/arch/riscv/isa.cc:572: warn: 75769038518598: context 0: 2340000 consecutive SC failures.
build/RISCV/arch/riscv/isa.cc:572: warn: 75787187457825: context 0: 2350000 consecutive SC failures.
build/RISCV/arch/riscv/isa.cc:572: warn: 75805335974142: context 0: 2360000 consecutive SC failures.
build/RISCV/arch/riscv/isa.cc:572: warn: 75823484120163: context 0: 2370000 consecutive SC failures.
build/RISCV/arch/riscv/isa.cc:572: warn: 75841632624825: context 0: 2380000 consecutive SC failures.
build/RISCV/arch/riscv/isa.cc:572: warn: 75859779873744: context 0: 2390000 consecutive SC failures.
build/RISCV/arch/riscv/isa.cc:572: warn: 75877932699414: context 0: 2400000 consecutive SC failures.
build/RISCV/arch/riscv/isa.cc:572: warn: 75896080935678: context 0: 2410000 consecutive SC failures.
build/RISCV/arch/riscv/isa.cc:572: warn: 75914229516597: context 0: 2420000 consecutive SC failures.
build/RISCV/arch/riscv/isa.cc:572: warn: 75932376722559: context 0: 2430000 consecutive SC failures.
build/RISCV/arch/riscv/isa.cc:572: warn: 75950525164950: context 0: 2440000 consecutive SC failures.
build/RISCV/arch/riscv/isa.cc:572: warn: 75968673515433: context 0: 2450000 consecutive SC failures.
build/RISCV/arch/riscv/isa.cc:572: warn: 75986820712404: context 0: 2460000 consecutive SC failures.
build/RISCV/arch/riscv/isa.cc:572: warn: 76004969157126: context 0: 2470000 consecutive SC failures.
build/RISCV/arch/riscv/isa.cc:572: warn: 76023117448335: context 0: 2480000 consecutive SC failures.
build/RISCV/arch/riscv/isa.cc:572: warn: 76041265952331: context 0: 2490000 consecutive SC failures.
build/RISCV/arch/riscv/isa.cc:572: warn: 76059413155629: context 0: 2500000 consecutive SC failures.
build/RISCV/arch/riscv/isa.cc:572: warn: 76077561565053: context 0: 2510000 consecutive SC failures.
build/RISCV/arch/riscv/isa.cc:572: warn: 76095709894224: context 0: 2520000 consecutive SC failures.
build/RISCV/arch/riscv/isa.cc:572: warn: 76113858288996: context 0: 2530000 consecutive SC failures.
build/RISCV/arch/riscv/isa.cc:572: warn: 76132005480972: context 0: 2540000 consecutive SC failures.
build/RISCV/arch/riscv/isa.cc:572: warn: 76150154040246: context 0: 2550000 consecutive SC failures.
build/RISCV/arch/riscv/isa.cc:572: warn: 76168302243876: context 0: 2560000 consecutive SC failures.
build/RISCV/arch/riscv/isa.cc:572: warn: 76186450770516: context 0: 2570000 consecutive SC failures.
build/RISCV/arch/riscv/isa.cc:572: warn: 76204598012775: context 0: 2580000 consecutive SC failures.
build/RISCV/arch/riscv/isa.cc:572: warn: 76222746378243: context 0: 2590000 consecutive SC failures.
build/RISCV/arch/riscv/isa.cc:572: warn: 76240894792329: context 0: 2600000 consecutive SC failures.
build/RISCV/arch/riscv/isa.cc:572: warn: 76259042136153: context 0: 2610000 consecutive SC failures.
build/RISCV/arch/riscv/isa.cc:572: warn: 76277190580542: context 0: 2620000 consecutive SC failures.
build/RISCV/arch/riscv/isa.cc:572: warn: 76295338790832: context 0: 2630000 consecutive SC failures.
build/RISCV/arch/riscv/isa.cc:572: warn: 76313487324465: context 0: 2640000 consecutive SC failures.
build/RISCV/arch/riscv/isa.cc:572: warn: 76331634615009: context 0: 2650000 consecutive SC failures.
build/RISCV/arch/riscv/isa.cc:572: warn: 76349783084706: context 0: 2660000 consecutive SC failures.
build/RISCV/arch/riscv/isa.cc:572: warn: 76367931290334: context 0: 2670000 consecutive SC failures.
build/RISCV/arch/riscv/isa.cc:572: warn: 76386081462660: context 0: 2680000 consecutive SC failures.
build/RISCV/arch/riscv/isa.cc:572: warn: 76404228793164: context 0: 2690000 consecutive SC failures.
build/RISCV/arch/riscv/isa.cc:572: warn: 76422377207250: context 0: 2700000 consecutive SC failures.
build/RISCV/arch/riscv/isa.cc:572: warn: 76440525601023: context 0: 2710000 consecutive SC failures.
build/RISCV/arch/riscv/isa.cc:572: warn: 76458672845613: context 0: 2720000 consecutive SC failures.
build/RISCV/arch/riscv/isa.cc:572: warn: 76476821267025: context 0: 2730000 consecutive SC failures.
build/RISCV/arch/riscv/isa.cc:572: warn: 76494969673452: context 0: 2740000 consecutive SC failures.
build/RISCV/arch/riscv/isa.cc:572: warn: 76513118086872: context 0: 2750000 consecutive SC failures.
build/RISCV/arch/riscv/isa.cc:572: warn: 76531265296497: context 0: 2760000 consecutive SC failures.
build/RISCV/arch/riscv/isa.cc:572: warn: 76549413718908: context 0: 2770000 consecutive SC failures.
build/RISCV/arch/riscv/isa.cc:572: warn: 76567562058402: context 0: 2780000 consecutive SC failures.
build/RISCV/arch/riscv/isa.cc:572: warn: 76585710503124: context 0: 2790000 consecutive SC failures.
build/RISCV/arch/riscv/isa.cc:572: warn: 76603857678783: context 0: 2800000 consecutive SC failures.
build/RISCV/arch/riscv/isa.cc:572: warn: 76622006230731: context 0: 2810000 consecutive SC failures.
build/RISCV/arch/riscv/isa.cc:572: warn: 76640154476985: context 0: 2820000 consecutive SC failures.
build/RISCV/arch/riscv/isa.cc:572: warn: 76658302931364: context 0: 2830000 consecutive SC failures.
build/RISCV/arch/riscv/isa.cc:572: warn: 76676450242554: context 0: 2840000 consecutive SC failures.
build/RISCV/arch/riscv/isa.cc:572: warn: 76694598454176: context 0: 2850000 consecutive SC failures.
build/RISCV/arch/riscv/isa.cc:572: warn: 76712746896900: context 0: 2860000 consecutive SC failures.
build/RISCV/arch/riscv/isa.cc:572: warn: 76730894216415: context 0: 2870000 consecutive SC failures.
build/RISCV/arch/riscv/isa.cc:572: warn: 76749042659472: context 0: 2880000 consecutive SC failures.
build/RISCV/arch/riscv/isa.cc:572: warn: 76767190917048: context 0: 2890000 consecutive SC failures.
build/RISCV/arch/riscv/isa.cc:572: warn: 76785339396069: context 0: 2900000 consecutive SC failures.
build/RISCV/arch/riscv/isa.cc:572: warn: 76803486657642: context 0: 2910000 consecutive SC failures.
build/RISCV/arch/riscv/isa.cc:572: warn: 76821635156976: context 0: 2920000 consecutive SC failures.
build/RISCV/arch/riscv/isa.cc:572: warn: 76839783378588: context 0: 2930000 consecutive SC failures.
build/RISCV/arch/riscv/isa.cc:572: warn: 76857931999467: context 0: 2940000 consecutive SC failures.
build/RISCV/arch/riscv/isa.cc:572: warn: 76876081772526: context 0: 2950000 consecutive SC failures.
build/RISCV/arch/riscv/isa.cc:572: warn: 76894232221575: context 0: 2960000 consecutive SC failures.
build/RISCV/arch/riscv/isa.cc:572: warn: 76912380572058: context 0: 2970000 consecutive SC failures.
build/RISCV/arch/riscv/isa.cc:572: warn: 76930529079384: context 0: 2980000 consecutive SC failures.
build/RISCV/arch/riscv/isa.cc:572: warn: 76948676224074: context 0: 2990000 consecutive SC failures.
build/RISCV/arch/riscv/isa.cc:572: warn: 76966824560238: context 0: 3000000 consecutive SC failures.
build/RISCV/arch/riscv/isa.cc:572: warn: 76984972998633: context 0: 3010000 consecutive SC failures.
build/RISCV/arch/riscv/isa.cc:572: warn: 77003120180286: context 0: 3020000 consecutive SC failures.
build/RISCV/arch/riscv/isa.cc:572: warn: 77021268608025: context 0: 3030000 consecutive SC failures.
build/RISCV/arch/riscv/isa.cc:572: warn: 77039416930203: context 0: 3040000 consecutive SC failures.
build/RISCV/arch/riscv/isa.cc:572: warn: 77057565358275: context 0: 3050000 consecutive SC failures.
build/RISCV/arch/riscv/isa.cc:572: warn: 77075712573228: context 0: 3060000 consecutive SC failures.
build/RISCV/arch/riscv/isa.cc:572: warn: 77093861110857: context 0: 3070000 consecutive SC failures.
build/RISCV/arch/riscv/isa.cc:572: warn: 77112009381420: context 0: 3080000 consecutive SC failures.
build/RISCV/arch/riscv/isa.cc:572: warn: 77130157829805: context 0: 3090000 consecutive SC failures.
build/RISCV/arch/riscv/isa.cc:572: warn: 77148305219916: context 0: 3100000 consecutive SC failures.
build/RISCV/arch/riscv/isa.cc:572: warn: 77166453685950: context 0: 3110000 consecutive SC failures.
build/RISCV/arch/riscv/isa.cc:572: warn: 77184601895574: context 0: 3120000 consecutive SC failures.
build/RISCV/arch/riscv/isa.cc:572: warn: 77202749241063: context 0: 3130000 consecutive SC failures.
build/RISCV/arch/riscv/isa.cc:572: warn: 77220897670467: context 0: 3140000 consecutive SC failures.
build/RISCV/arch/riscv/isa.cc:572: warn: 77239045942695: context 0: 3150000 consecutive SC failures.
build/RISCV/arch/riscv/isa.cc:572: warn: 77257194437034: context 0: 3160000 consecutive SC failures.
build/RISCV/arch/riscv/isa.cc:572: warn: 77275341720585: context 0: 3170000 consecutive SC failures.
build/RISCV/arch/riscv/isa.cc:572: warn: 77293490236569: context 0: 3180000 consecutive SC failures.
build/RISCV/arch/riscv/isa.cc:572: warn: 77311638444195: context 0: 3190000 consecutive SC failures.
build/RISCV/arch/riscv/isa.cc:572: warn: 77329787032773: context 0: 3200000 consecutive SC failures.
build/RISCV/arch/riscv/isa.cc:572: warn: 77347934171802: context 0: 3210000 consecutive SC failures.
build/RISCV/arch/riscv/isa.cc:572: warn: 77366082643164: context 0: 3220000 consecutive SC failures.
build/RISCV/arch/riscv/isa.cc:572: warn: 77384231023617: context 0: 3230000 consecutive SC failures.
build/RISCV/arch/riscv/isa.cc:572: warn: 77402379439368: context 0: 3240000 consecutive SC failures.
build/RISCV/arch/riscv/isa.cc:572: warn: 77420528328312: context 0: 3250000 consecutive SC failures.
build/RISCV/arch/riscv/isa.cc:572: warn: 77438676687786: context 0: 3260000 consecutive SC failures.
build/RISCV/arch/riscv/isa.cc:572: warn: 77456825080560: context 0: 3270000 consecutive SC failures.
build/RISCV/arch/riscv/isa.cc:572: warn: 77474972379096: context 0: 3280000 consecutive SC failures.
build/RISCV/arch/riscv/isa.cc:572: warn: 77486383478574: context 0: 3290000 consecutive SC failures.
build/RISCV/arch/riscv/isa.cc:572: warn: 77538936053727: context 0: 3300000 consecutive SC failures.
build/RISCV/arch/riscv/isa.cc:572: warn: 77557068856107: context 0: 3310000 consecutive SC failures.
build/RISCV/arch/riscv/isa.cc:572: warn: 77575197260223: context 0: 3320000 consecutive SC failures.
build/RISCV/arch/riscv/isa.cc:572: warn: 77593326974694: context 0: 3330000 consecutive SC failures.
build/RISCV/arch/riscv/isa.cc:572: warn: 77611459890294: context 0: 3340000 consecutive SC failures.
build/RISCV/arch/riscv/isa.cc:572: warn: 77629599241785: context 0: 3350000 consecutive SC failures.
build/RISCV/arch/riscv/isa.cc:572: warn: 77647740566967: context 0: 3360000 consecutive SC failures.
build/RISCV/arch/riscv/isa.cc:572: warn: 77665884435936: context 0: 3370000 consecutive SC failures.
build/RISCV/arch/riscv/isa.cc:572: warn: 77684028298578: context 0: 3380000 consecutive SC failures.
build/RISCV/arch/riscv/isa.cc:572: warn: 77702174508537: context 0: 3390000 consecutive SC failures.
build/RISCV/arch/riscv/isa.cc:572: warn: 77720321550996: context 0: 3400000 consecutive SC failures.
build/RISCV/arch/riscv/isa.cc:572: warn: 77738468842539: context 0: 3410000 consecutive SC failures.
build/RISCV/arch/riscv/isa.cc:572: warn: 77756614994889: context 0: 3420000 consecutive SC failures.
build/RISCV/arch/riscv/isa.cc:572: warn: 77774763216501: context 0: 3430000 consecutive SC failures.
build/RISCV/arch/riscv/isa.cc:572: warn: 77792911725825: context 0: 3440000 consecutive SC failures.
build/RISCV/arch/riscv/isa.cc:572: warn: 77811057862857: context 0: 3450000 consecutive SC failures.
build/RISCV/arch/riscv/isa.cc:572: warn: 77829209071479: context 0: 3460000 consecutive SC failures.
build/RISCV/arch/riscv/isa.cc:572: warn: 77847357300417: context 0: 3470000 consecutive SC failures.
build/RISCV/arch/riscv/isa.cc:572: warn: 77865507564651: context 0: 3480000 consecutive SC failures.
build/RISCV/arch/riscv/isa.cc:572: warn: 77883654765618: context 0: 3490000 consecutive SC failures.
build/RISCV/arch/riscv/isa.cc:572: warn: 77901803210007: context 0: 3500000 consecutive SC failures.
build/RISCV/arch/riscv/isa.cc:572: warn: 77919953597451: context 0: 3510000 consecutive SC failures.
build/RISCV/arch/riscv/isa.cc:572: warn: 77938102099782: context 0: 3520000 consecutive SC failures.
build/RISCV/arch/riscv/isa.cc:572: warn: 77956249246470: context 0: 3530000 consecutive SC failures.
build/RISCV/arch/riscv/isa.cc:572: warn: 77974397739477: context 0: 3540000 consecutive SC failures.
build/RISCV/arch/riscv/isa.cc:572: warn: 77992546004046: context 0: 3550000 consecutive SC failures.
build/RISCV/arch/riscv/isa.cc:572: warn: 78010693282935: context 0: 3560000 consecutive SC failures.
build/RISCV/arch/riscv/isa.cc:572: warn: 78028841680038: context 0: 3570000 consecutive SC failures.
build/RISCV/arch/riscv/isa.cc:572: warn: 78046989999885: context 0: 3580000 consecutive SC failures.
build/RISCV/arch/riscv/isa.cc:572: warn: 78065138454597: context 0: 3590000 consecutive SC failures.
build/RISCV/arch/riscv/isa.cc:572: warn: 78083285644908: context 0: 3600000 consecutive SC failures.
build/RISCV/arch/riscv/isa.cc:572: warn: 78101434286433: context 0: 3610000 consecutive SC failures.
build/RISCV/arch/riscv/isa.cc:572: warn: 78119582439114: context 0: 3620000 consecutive SC failures.
build/RISCV/arch/riscv/isa.cc:572: warn: 78137730938781: context 0: 3630000 consecutive SC failures.
build/RISCV/arch/riscv/isa.cc:572: warn: 78155878258629: context 0: 3640000 consecutive SC failures.
build/RISCV/arch/riscv/isa.cc:572: warn: 78174026688699: context 0: 3650000 consecutive SC failures.
build/RISCV/arch/riscv/isa.cc:572: warn: 78192174921300: context 0: 3660000 consecutive SC failures.
build/RISCV/arch/riscv/isa.cc:572: warn: 78210323365023: context 0: 3670000 consecutive SC failures.
build/RISCV/arch/riscv/isa.cc:572: warn: 78228470650905: context 0: 3680000 consecutive SC failures.
build/RISCV/arch/riscv/isa.cc:572: warn: 78246618866523: context 0: 3690000 consecutive SC failures.
build/RISCV/arch/riscv/isa.cc:572: warn: 78264767327562: context 0: 3700000 consecutive SC failures.
build/RISCV/arch/riscv/isa.cc:572: warn: 78282914679045: context 0: 3710000 consecutive SC failures.
